GSFLOW MODFLOW main             gsflow_modflow      2021-02-18
UZF-NWT Package                 gwf2uzf1_NWT        2020-12-28
SFR-NWT Package                 gwf2sfr7_NWT        2020-09-30
LAK-NWT Package                 gwf2lak7_NWT        2020-09-30
GSFLOW MODFLOW main             gsflow_modflow      2021-02-18
UZF-NWT Package                 gwf2uzf1_NWT        2020-12-28
SFR-NWT Package                 gwf2sfr7_NWT        2020-09-30
LAK-NWT Package                 gwf2lak7_NWT        2020-09-30
GSFLOW MODFLOW main             gsflow_modflow      2021-02-18
UZF-NWT Package                 gwf2uzf1_NWT        2020-12-28
SFR-NWT Package                 gwf2sfr7_NWT        2020-09-30
LAK-NWT Package                 gwf2lak7_NWT        2020-09-30
GSFLOW MODFLOW main             gsflow_modflow      2021-02-18
UZF-NWT Package                 gwf2uzf1_NWT        2020-12-28
SFR-NWT Package                 gwf2sfr7_NWT        2020-09-30
LAK-NWT Package                 gwf2lak7_NWT        2020-09-30
GSFLOW MODFLOW main             gsflow_modflow      2021-02-18
UZF-NWT Package                 gwf2uzf1_NWT        2020-12-28
SFR-NWT Package                 gwf2sfr7_NWT        2020-09-30
LAK-NWT Package                 gwf2lak7_NWT        2020-09-30
GSFLOW MODFLOW main             gsflow_modflow      2021-02-18
UZF-NWT Package                 gwf2uzf1_NWT        2020-12-28
SFR-NWT Package                 gwf2sfr7_NWT        2020-09-30
LAK-NWT Package                 gwf2lak7_NWT        2020-09-30
GSFLOW MODFLOW main             gsflow_modflow      2021-02-18
UZF-NWT Package                 gwf2uzf1_NWT        2020-12-28
SFR-NWT Package                 gwf2sfr7_NWT        2020-09-30
LAK-NWT Package                 gwf2lak7_NWT        2020-09-30
GSFLOW MODFLOW main             gsflow_modflow      2021-02-18
UZF-NWT Package                 gwf2uzf1_NWT        2020-12-28
SFR-NWT Package                 gwf2sfr7_NWT        2020-09-30
LAK-NWT Package                 gwf2lak7_NWT        2020-09-30
GSFLOW MODFLOW main             gsflow_modflow      2021-02-18
UZF-NWT Package                 gwf2uzf1_NWT        2020-12-28
SFR-NWT Package                 gwf2sfr7_NWT        2020-09-30
LAK-NWT Package                 gwf2lak7_NWT        2020-09-30
GSFLOW MODFLOW main             gsflow_modflow      2021-02-18
UZF-NWT Package                 gwf2uzf1_NWT        2020-12-28
SFR-NWT Package                 gwf2sfr7_NWT        2020-09-30
LAK-NWT Package                 gwf2lak7_NWT        2020-09-30
GSFLOW MODFLOW main             gsflow_modflow      2021-02-18
UZF-NWT Package                 gwf2uzf1_NWT        2020-12-28
SFR-NWT Package                 gwf2sfr7_NWT        2020-09-30
LAK-NWT Package                 gwf2lak7_NWT        2020-09-30
GSFLOW MODFLOW main             gsflow_modflow      2021-02-18
UZF-NWT Package                 gwf2uzf1_NWT        2020-12-28
SFR-NWT Package                 gwf2sfr7_NWT        2020-09-30
LAK-NWT Package                 gwf2lak7_NWT        2020-09-30
GSFLOW MODFLOW main             gsflow_modflow      2021-02-18
UZF-NWT Package                 gwf2uzf1_NWT        2020-12-28
SFR-NWT Package                 gwf2sfr7_NWT        2020-09-30
LAK-NWT Package                 gwf2lak7_NWT        2020-09-30
GSFLOW MODFLOW main             gsflow_modflow      2021-02-18
UZF-NWT Package                 gwf2uzf1_NWT        2020-12-28
SFR-NWT Package                 gwf2sfr7_NWT        2020-09-30
LAK-NWT Package                 gwf2lak7_NWT        2020-09-30
GSFLOW MODFLOW main             gsflow_modflow      2021-02-18
UZF-NWT Package                 gwf2uzf1_NWT        2020-12-28
SFR-NWT Package                 gwf2sfr7_NWT        2020-09-30
LAK-NWT Package                 gwf2lak7_NWT        2020-09-30
GSFLOW MODFLOW main             gsflow_modflow      2021-02-18
UZF-NWT Package                 gwf2uzf1_NWT        2020-12-28
SFR-NWT Package                 gwf2sfr7_NWT        2020-09-30
LAK-NWT Package                 gwf2lak7_NWT        2020-09-30
GSFLOW MODFLOW main             gsflow_modflow      2021-02-18
UZF-NWT Package                 gwf2uzf1_NWT        2020-12-28
SFR-NWT Package                 gwf2sfr7_NWT        2020-09-30
LAK-NWT Package                 gwf2lak7_NWT        2020-09-30
GSFLOW MODFLOW main             gsflow_modflow      2021-02-18
UZF-NWT Package                 gwf2uzf1_NWT        2020-12-28
SFR-NWT Package                 gwf2sfr7_NWT        2020-09-30
LAK-NWT Package                 gwf2lak7_NWT        2020-09-30
GSFLOW MODFLOW main             gsflow_modflow      2021-02-18
UZF-NWT Package                 gwf2uzf1_NWT        2020-12-28
SFR-NWT Package                 gwf2sfr7_NWT        2020-09-30
LAK-NWT Package                 gwf2lak7_NWT        2020-09-30
GSFLOW MODFLOW main             gsflow_modflow      2021-02-18
UZF-NWT Package                 gwf2uzf1_NWT        2020-12-28
SFR-NWT Package                 gwf2sfr7_NWT        2020-09-30
LAK-NWT Package                 gwf2lak7_NWT        2020-09-30
GSFLOW MODFLOW main             gsflow_modflow      2021-02-18
UZF-NWT Package                 gwf2uzf1_NWT        2020-12-28
SFR-NWT Package                 gwf2sfr7_NWT        2020-09-30
LAK-NWT Package                 gwf2lak7_NWT        2020-09-30
GSFLOW MODFLOW main             gsflow_modflow      2021-02-18
UZF-NWT Package                 gwf2uzf1_NWT        2020-12-28
SFR-NWT Package                 gwf2sfr7_NWT        2020-09-30
LAK-NWT Package                 gwf2lak7_NWT        2020-09-30
GSFLOW MODFLOW main             gsflow_modflow      2021-02-18
UZF-NWT Package                 gwf2uzf1_NWT        2020-12-28
SFR-NWT Package                 gwf2sfr7_NWT        2020-09-30
LAK-NWT Package                 gwf2lak7_NWT        2020-09-30
GSFLOW MODFLOW main             gsflow_modflow      2021-02-18
UZF-NWT Package                 gwf2uzf1_NWT        2020-12-28
SFR-NWT Package                 gwf2sfr7_NWT        2020-09-30
LAK-NWT Package                 gwf2lak7_NWT        2020-09-30
GSFLOW MODFLOW main             gsflow_modflow      2021-02-18
UZF-NWT Package                 gwf2uzf1_NWT        2020-12-28
SFR-NWT Package                 gwf2sfr7_NWT        2020-09-30
LAK-NWT Package                 gwf2lak7_NWT        2020-09-30
GSFLOW MODFLOW main             gsflow_modflow      2021-02-18
UZF-NWT Package                 gwf2uzf1_NWT        2020-12-28
SFR-NWT Package                 gwf2sfr7_NWT        2020-09-30
LAK-NWT Package                 gwf2lak7_NWT        2020-09-30
GSFLOW MODFLOW main             gsflow_modflow      2021-02-18
UZF-NWT Package                 gwf2uzf1_NWT        2020-12-28
SFR-NWT Package                 gwf2sfr7_NWT        2020-09-30
LAK-NWT Package                 gwf2lak7_NWT        2020-09-30
GSFLOW MODFLOW main             gsflow_modflow      2021-02-18
UZF-NWT Package                 gwf2uzf1_NWT        2020-12-28
SFR-NWT Package                 gwf2sfr7_NWT        2020-09-30
LAK-NWT Package                 gwf2lak7_NWT        2020-09-30
GSFLOW MODFLOW main             gsflow_modflow      2021-02-18
UZF-NWT Package                 gwf2uzf1_NWT        2020-12-28
SFR-NWT Package                 gwf2sfr7_NWT        2020-09-30
LAK-NWT Package                 gwf2lak7_NWT        2020-09-30
GSFLOW MODFLOW main             gsflow_modflow      2021-02-18
UZF-NWT Package                 gwf2uzf1_NWT        2020-12-28
SFR-NWT Package                 gwf2sfr7_NWT        2020-09-30
LAK-NWT Package                 gwf2lak7_NWT        2020-09-30
GSFLOW MODFLOW main             gsflow_modflow      2021-02-18
UZF-NWT Package                 gwf2uzf1_NWT        2020-12-28
SFR-NWT Package                 gwf2sfr7_NWT        2020-09-30
LAK-NWT Package                 gwf2lak7_NWT        2020-09-30
Traceback (most recent call last):
  File "D:\condor\execute\dir_22652\model\slave_dir\ss_forward_model_20210813.py", line 166, in <module>
    run(input_file= 'input_param.csv')
  File "D:\condor\execute\dir_22652\model\slave_dir\ss_forward_model_20210813.py", line 80, in run
    Sim.mf = flopy.modflow.Modflow.load(os.path.basename(Sim.name_file), model_ws= os.path.dirname(Sim.name_file),
  File "D:\condor\execute\dir_22652\Miniconda3\lib\site-packages\flopy\modflow\mf.py", line 916, in load
    item.package.load(
  File "D:\condor\execute\dir_22652\Miniconda3\lib\site-packages\flopy\modflow\mflak.py", line 682, in load
    if line[0] != "#":
IndexError: string index out of range
Traceback (most recent call last):
  File "D:\condor\execute\dir_22652\model\slave_dir\ss_forward_model_20210813.py", line 166, in <module>
    run(input_file= 'input_param.csv')
  File "D:\condor\execute\dir_22652\model\slave_dir\ss_forward_model_20210813.py", line 80, in run
    Sim.mf = flopy.modflow.Modflow.load(os.path.basename(Sim.name_file), model_ws= os.path.dirname(Sim.name_file),
  File "D:\condor\execute\dir_22652\Miniconda3\lib\site-packages\flopy\modflow\mf.py", line 916, in load
    item.package.load(
  File "D:\condor\execute\dir_22652\Miniconda3\lib\site-packages\flopy\modflow\mflak.py", line 682, in load
    if line[0] != "#":
IndexError: string index out of range
Traceback (most recent call last):
  File "D:\condor\execute\dir_22652\model\slave_dir\ss_forward_model_20210813.py", line 166, in <module>
    run(input_file= 'input_param.csv')
  File "D:\condor\execute\dir_22652\model\slave_dir\ss_forward_model_20210813.py", line 80, in run
    Sim.mf = flopy.modflow.Modflow.load(os.path.basename(Sim.name_file), model_ws= os.path.dirname(Sim.name_file),
  File "D:\condor\execute\dir_22652\Miniconda3\lib\site-packages\flopy\modflow\mf.py", line 916, in load
    item.package.load(
  File "D:\condor\execute\dir_22652\Miniconda3\lib\site-packages\flopy\modflow\mflak.py", line 682, in load
    if line[0] != "#":
IndexError: string index out of range
Traceback (most recent call last):
  File "D:\condor\execute\dir_22652\model\slave_dir\ss_forward_model_20210813.py", line 166, in <module>
    run(input_file= 'input_param.csv')
  File "D:\condor\execute\dir_22652\model\slave_dir\ss_forward_model_20210813.py", line 80, in run
    Sim.mf = flopy.modflow.Modflow.load(os.path.basename(Sim.name_file), model_ws= os.path.dirname(Sim.name_file),
  File "D:\condor\execute\dir_22652\Miniconda3\lib\site-packages\flopy\modflow\mf.py", line 916, in load
    item.package.load(
  File "D:\condor\execute\dir_22652\Miniconda3\lib\site-packages\flopy\modflow\mflak.py", line 682, in load
    if line[0] != "#":
IndexError: string index out of range
Traceback (most recent call last):
  File "D:\condor\execute\dir_22652\model\slave_dir\ss_forward_model_20210813.py", line 166, in <module>
    run(input_file= 'input_param.csv')
  File "D:\condor\execute\dir_22652\model\slave_dir\ss_forward_model_20210813.py", line 80, in run
    Sim.mf = flopy.modflow.Modflow.load(os.path.basename(Sim.name_file), model_ws= os.path.dirname(Sim.name_file),
  File "D:\condor\execute\dir_22652\Miniconda3\lib\site-packages\flopy\modflow\mf.py", line 916, in load
    item.package.load(
  File "D:\condor\execute\dir_22652\Miniconda3\lib\site-packages\flopy\modflow\mflak.py", line 682, in load
    if line[0] != "#":
IndexError: string index out of range
Traceback (most recent call last):
  File "D:\condor\execute\dir_22652\model\slave_dir\ss_forward_model_20210813.py", line 166, in <module>
    run(input_file= 'input_param.csv')
  File "D:\condor\execute\dir_22652\model\slave_dir\ss_forward_model_20210813.py", line 80, in run
    Sim.mf = flopy.modflow.Modflow.load(os.path.basename(Sim.name_file), model_ws= os.path.dirname(Sim.name_file),
  File "D:\condor\execute\dir_22652\Miniconda3\lib\site-packages\flopy\modflow\mf.py", line 916, in load
    item.package.load(
  File "D:\condor\execute\dir_22652\Miniconda3\lib\site-packages\flopy\modflow\mflak.py", line 682, in load
    if line[0] != "#":
IndexError: string index out of range
Traceback (most recent call last):
  File "D:\condor\execute\dir_22652\model\slave_dir\ss_forward_model_20210813.py", line 166, in <module>
    run(input_file= 'input_param.csv')
  File "D:\condor\execute\dir_22652\model\slave_dir\ss_forward_model_20210813.py", line 80, in run
    Sim.mf = flopy.modflow.Modflow.load(os.path.basename(Sim.name_file), model_ws= os.path.dirname(Sim.name_file),
  File "D:\condor\execute\dir_22652\Miniconda3\lib\site-packages\flopy\modflow\mf.py", line 916, in load
    item.package.load(
  File "D:\condor\execute\dir_22652\Miniconda3\lib\site-packages\flopy\modflow\mflak.py", line 682, in load
    if line[0] != "#":
IndexError: string index out of range
Traceback (most recent call last):
  File "D:\condor\execute\dir_22652\model\slave_dir\ss_forward_model_20210813.py", line 166, in <module>
    run(input_file= 'input_param.csv')
  File "D:\condor\execute\dir_22652\model\slave_dir\ss_forward_model_20210813.py", line 80, in run
    Sim.mf = flopy.modflow.Modflow.load(os.path.basename(Sim.name_file), model_ws= os.path.dirname(Sim.name_file),
  File "D:\condor\execute\dir_22652\Miniconda3\lib\site-packages\flopy\modflow\mf.py", line 916, in load
    item.package.load(
  File "D:\condor\execute\dir_22652\Miniconda3\lib\site-packages\flopy\modflow\mflak.py", line 682, in load
    if line[0] != "#":
IndexError: string index out of range
Traceback (most recent call last):
  File "D:\condor\execute\dir_22652\model\slave_dir\ss_forward_model_20210813.py", line 166, in <module>
    run(input_file= 'input_param.csv')
  File "D:\condor\execute\dir_22652\model\slave_dir\ss_forward_model_20210813.py", line 80, in run
    Sim.mf = flopy.modflow.Modflow.load(os.path.basename(Sim.name_file), model_ws= os.path.dirname(Sim.name_file),
  File "D:\condor\execute\dir_22652\Miniconda3\lib\site-packages\flopy\modflow\mf.py", line 916, in load
    item.package.load(
  File "D:\condor\execute\dir_22652\Miniconda3\lib\site-packages\flopy\modflow\mflak.py", line 682, in load
    if line[0] != "#":
IndexError: string index out of range
Traceback (most recent call last):
  File "D:\condor\execute\dir_22652\model\slave_dir\ss_forward_model_20210813.py", line 166, in <module>
    run(input_file= 'input_param.csv')
  File "D:\condor\execute\dir_22652\model\slave_dir\ss_forward_model_20210813.py", line 80, in run
    Sim.mf = flopy.modflow.Modflow.load(os.path.basename(Sim.name_file), model_ws= os.path.dirname(Sim.name_file),
  File "D:\condor\execute\dir_22652\Miniconda3\lib\site-packages\flopy\modflow\mf.py", line 916, in load
    item.package.load(
  File "D:\condor\execute\dir_22652\Miniconda3\lib\site-packages\flopy\modflow\mflak.py", line 682, in load
    if line[0] != "#":
IndexError: string index out of range
Traceback (most recent call last):
  File "D:\condor\execute\dir_22652\model\slave_dir\ss_forward_model_20210813.py", line 166, in <module>
    run(input_file= 'input_param.csv')
  File "D:\condor\execute\dir_22652\model\slave_dir\ss_forward_model_20210813.py", line 80, in run
    Sim.mf = flopy.modflow.Modflow.load(os.path.basename(Sim.name_file), model_ws= os.path.dirname(Sim.name_file),
  File "D:\condor\execute\dir_22652\Miniconda3\lib\site-packages\flopy\modflow\mf.py", line 916, in load
    item.package.load(
  File "D:\condor\execute\dir_22652\Miniconda3\lib\site-packages\flopy\modflow\mflak.py", line 682, in load
    if line[0] != "#":
IndexError: string index out of range
Traceback (most recent call last):
  File "D:\condor\execute\dir_22652\model\slave_dir\ss_forward_model_20210813.py", line 166, in <module>
    run(input_file= 'input_param.csv')
  File "D:\condor\execute\dir_22652\model\slave_dir\ss_forward_model_20210813.py", line 80, in run
    Sim.mf = flopy.modflow.Modflow.load(os.path.basename(Sim.name_file), model_ws= os.path.dirname(Sim.name_file),
  File "D:\condor\execute\dir_22652\Miniconda3\lib\site-packages\flopy\modflow\mf.py", line 916, in load
    item.package.load(
  File "D:\condor\execute\dir_22652\Miniconda3\lib\site-packages\flopy\modflow\mflak.py", line 682, in load
    if line[0] != "#":
IndexError: string index out of range
Traceback (most recent call last):
  File "D:\condor\execute\dir_22652\model\slave_dir\ss_forward_model_20210813.py", line 166, in <module>
    run(input_file= 'input_param.csv')
  File "D:\condor\execute\dir_22652\model\slave_dir\ss_forward_model_20210813.py", line 80, in run
    Sim.mf = flopy.modflow.Modflow.load(os.path.basename(Sim.name_file), model_ws= os.path.dirname(Sim.name_file),
  File "D:\condor\execute\dir_22652\Miniconda3\lib\site-packages\flopy\modflow\mf.py", line 916, in load
    item.package.load(
  File "D:\condor\execute\dir_22652\Miniconda3\lib\site-packages\flopy\modflow\mflak.py", line 682, in load
    if line[0] != "#":
IndexError: string index out of range
Traceback (most recent call last):
  File "D:\condor\execute\dir_22652\model\slave_dir\ss_forward_model_20210813.py", line 166, in <module>
    run(input_file= 'input_param.csv')
  File "D:\condor\execute\dir_22652\model\slave_dir\ss_forward_model_20210813.py", line 80, in run
    Sim.mf = flopy.modflow.Modflow.load(os.path.basename(Sim.name_file), model_ws= os.path.dirname(Sim.name_file),
  File "D:\condor\execute\dir_22652\Miniconda3\lib\site-packages\flopy\modflow\mf.py", line 916, in load
    item.package.load(
  File "D:\condor\execute\dir_22652\Miniconda3\lib\site-packages\flopy\modflow\mflak.py", line 682, in load
    if line[0] != "#":
IndexError: string index out of range
Traceback (most recent call last):
  File "D:\condor\execute\dir_22652\model\slave_dir\ss_forward_model_20210813.py", line 166, in <module>
    run(input_file= 'input_param.csv')
  File "D:\condor\execute\dir_22652\model\slave_dir\ss_forward_model_20210813.py", line 80, in run
    Sim.mf = flopy.modflow.Modflow.load(os.path.basename(Sim.name_file), model_ws= os.path.dirname(Sim.name_file),
  File "D:\condor\execute\dir_22652\Miniconda3\lib\site-packages\flopy\modflow\mf.py", line 916, in load
    item.package.load(
  File "D:\condor\execute\dir_22652\Miniconda3\lib\site-packages\flopy\modflow\mflak.py", line 682, in load
    if line[0] != "#":
IndexError: string index out of range
Traceback (most recent call last):
  File "D:\condor\execute\dir_22652\model\slave_dir\ss_forward_model_20210813.py", line 166, in <module>
    run(input_file= 'input_param.csv')
  File "D:\condor\execute\dir_22652\model\slave_dir\ss_forward_model_20210813.py", line 80, in run
    Sim.mf = flopy.modflow.Modflow.load(os.path.basename(Sim.name_file), model_ws= os.path.dirname(Sim.name_file),
  File "D:\condor\execute\dir_22652\Miniconda3\lib\site-packages\flopy\modflow\mf.py", line 916, in load
    item.package.load(
  File "D:\condor\execute\dir_22652\Miniconda3\lib\site-packages\flopy\modflow\mflak.py", line 682, in load
    if line[0] != "#":
IndexError: string index out of range
Traceback (most recent call last):
  File "D:\condor\execute\dir_22652\model\slave_dir\ss_forward_model_20210813.py", line 166, in <module>
    run(input_file= 'input_param.csv')
  File "D:\condor\execute\dir_22652\model\slave_dir\ss_forward_model_20210813.py", line 80, in run
    Sim.mf = flopy.modflow.Modflow.load(os.path.basename(Sim.name_file), model_ws= os.path.dirname(Sim.name_file),
  File "D:\condor\execute\dir_22652\Miniconda3\lib\site-packages\flopy\modflow\mf.py", line 916, in load
    item.package.load(
  File "D:\condor\execute\dir_22652\Miniconda3\lib\site-packages\flopy\modflow\mflak.py", line 682, in load
    if line[0] != "#":
IndexError: string index out of range
Traceback (most recent call last):
  File "D:\condor\execute\dir_22652\model\slave_dir\ss_forward_model_20210813.py", line 166, in <module>
    run(input_file= 'input_param.csv')
  File "D:\condor\execute\dir_22652\model\slave_dir\ss_forward_model_20210813.py", line 80, in run
    Sim.mf = flopy.modflow.Modflow.load(os.path.basename(Sim.name_file), model_ws= os.path.dirname(Sim.name_file),
  File "D:\condor\execute\dir_22652\Miniconda3\lib\site-packages\flopy\modflow\mf.py", line 916, in load
    item.package.load(
  File "D:\condor\execute\dir_22652\Miniconda3\lib\site-packages\flopy\modflow\mflak.py", line 682, in load
    if line[0] != "#":
IndexError: string index out of range
Traceback (most recent call last):
  File "D:\condor\execute\dir_22652\model\slave_dir\ss_forward_model_20210813.py", line 166, in <module>
    run(input_file= 'input_param.csv')
  File "D:\condor\execute\dir_22652\model\slave_dir\ss_forward_model_20210813.py", line 80, in run
    Sim.mf = flopy.modflow.Modflow.load(os.path.basename(Sim.name_file), model_ws= os.path.dirname(Sim.name_file),
  File "D:\condor\execute\dir_22652\Miniconda3\lib\site-packages\flopy\modflow\mf.py", line 916, in load
    item.package.load(
  File "D:\condor\execute\dir_22652\Miniconda3\lib\site-packages\flopy\modflow\mflak.py", line 682, in load
    if line[0] != "#":
IndexError: string index out of range
Traceback (most recent call last):
  File "D:\condor\execute\dir_22652\model\slave_dir\ss_forward_model_20210813.py", line 166, in <module>
    run(input_file= 'input_param.csv')
  File "D:\condor\execute\dir_22652\model\slave_dir\ss_forward_model_20210813.py", line 80, in run
    Sim.mf = flopy.modflow.Modflow.load(os.path.basename(Sim.name_file), model_ws= os.path.dirname(Sim.name_file),
  File "D:\condor\execute\dir_22652\Miniconda3\lib\site-packages\flopy\modflow\mf.py", line 916, in load
    item.package.load(
  File "D:\condor\execute\dir_22652\Miniconda3\lib\site-packages\flopy\modflow\mflak.py", line 682, in load
    if line[0] != "#":
IndexError: string index out of range
Traceback (most recent call last):
  File "D:\condor\execute\dir_22652\model\slave_dir\ss_forward_model_20210813.py", line 166, in <module>
    run(input_file= 'input_param.csv')
  File "D:\condor\execute\dir_22652\model\slave_dir\ss_forward_model_20210813.py", line 80, in run
    Sim.mf = flopy.modflow.Modflow.load(os.path.basename(Sim.name_file), model_ws= os.path.dirname(Sim.name_file),
  File "D:\condor\execute\dir_22652\Miniconda3\lib\site-packages\flopy\modflow\mf.py", line 916, in load
    item.package.load(
  File "D:\condor\execute\dir_22652\Miniconda3\lib\site-packages\flopy\modflow\mflak.py", line 682, in load
    if line[0] != "#":
IndexError: string index out of range
Traceback (most recent call last):
  File "D:\condor\execute\dir_22652\model\slave_dir\ss_forward_model_20210813.py", line 166, in <module>
    run(input_file= 'input_param.csv')
  File "D:\condor\execute\dir_22652\model\slave_dir\ss_forward_model_20210813.py", line 80, in run
    Sim.mf = flopy.modflow.Modflow.load(os.path.basename(Sim.name_file), model_ws= os.path.dirname(Sim.name_file),
  File "D:\condor\execute\dir_22652\Miniconda3\lib\site-packages\flopy\modflow\mf.py", line 916, in load
    item.package.load(
  File "D:\condor\execute\dir_22652\Miniconda3\lib\site-packages\flopy\modflow\mflak.py", line 682, in load
    if line[0] != "#":
IndexError: string index out of range
Traceback (most recent call last):
  File "D:\condor\execute\dir_22652\model\slave_dir\ss_forward_model_20210813.py", line 166, in <module>
    run(input_file= 'input_param.csv')
  File "D:\condor\execute\dir_22652\model\slave_dir\ss_forward_model_20210813.py", line 80, in run
    Sim.mf = flopy.modflow.Modflow.load(os.path.basename(Sim.name_file), model_ws= os.path.dirname(Sim.name_file),
  File "D:\condor\execute\dir_22652\Miniconda3\lib\site-packages\flopy\modflow\mf.py", line 916, in load
    item.package.load(
  File "D:\condor\execute\dir_22652\Miniconda3\lib\site-packages\flopy\modflow\mflak.py", line 682, in load
    if line[0] != "#":
IndexError: string index out of range
Traceback (most recent call last):
  File "D:\condor\execute\dir_22652\model\slave_dir\ss_forward_model_20210813.py", line 166, in <module>
    run(input_file= 'input_param.csv')
  File "D:\condor\execute\dir_22652\model\slave_dir\ss_forward_model_20210813.py", line 80, in run
    Sim.mf = flopy.modflow.Modflow.load(os.path.basename(Sim.name_file), model_ws= os.path.dirname(Sim.name_file),
  File "D:\condor\execute\dir_22652\Miniconda3\lib\site-packages\flopy\modflow\mf.py", line 916, in load
    item.package.load(
  File "D:\condor\execute\dir_22652\Miniconda3\lib\site-packages\flopy\modflow\mflak.py", line 682, in load
    if line[0] != "#":
IndexError: string index out of range
Traceback (most recent call last):
  File "D:\condor\execute\dir_22652\model\slave_dir\ss_forward_model_20210813.py", line 166, in <module>
    run(input_file= 'input_param.csv')
  File "D:\condor\execute\dir_22652\model\slave_dir\ss_forward_model_20210813.py", line 80, in run
    Sim.mf = flopy.modflow.Modflow.load(os.path.basename(Sim.name_file), model_ws= os.path.dirname(Sim.name_file),
  File "D:\condor\execute\dir_22652\Miniconda3\lib\site-packages\flopy\modflow\mf.py", line 916, in load
    item.package.load(
  File "D:\condor\execute\dir_22652\Miniconda3\lib\site-packages\flopy\modflow\mflak.py", line 682, in load
    if line[0] != "#":
IndexError: string index out of range
Traceback (most recent call last):
  File "D:\condor\execute\dir_22652\model\slave_dir\ss_forward_model_20210813.py", line 166, in <module>
    run(input_file= 'input_param.csv')
  File "D:\condor\execute\dir_22652\model\slave_dir\ss_forward_model_20210813.py", line 80, in run
    Sim.mf = flopy.modflow.Modflow.load(os.path.basename(Sim.name_file), model_ws= os.path.dirname(Sim.name_file),
  File "D:\condor\execute\dir_22652\Miniconda3\lib\site-packages\flopy\modflow\mf.py", line 916, in load
    item.package.load(
  File "D:\condor\execute\dir_22652\Miniconda3\lib\site-packages\flopy\modflow\mflak.py", line 682, in load
    if line[0] != "#":
IndexError: string index out of range
Traceback (most recent call last):
  File "D:\condor\execute\dir_22652\model\slave_dir\ss_forward_model_20210813.py", line 166, in <module>
    run(input_file= 'input_param.csv')
  File "D:\condor\execute\dir_22652\model\slave_dir\ss_forward_model_20210813.py", line 80, in run
    Sim.mf = flopy.modflow.Modflow.load(os.path.basename(Sim.name_file), model_ws= os.path.dirname(Sim.name_file),
  File "D:\condor\execute\dir_22652\Miniconda3\lib\site-packages\flopy\modflow\mf.py", line 916, in load
    item.package.load(
  File "D:\condor\execute\dir_22652\Miniconda3\lib\site-packages\flopy\modflow\mflak.py", line 682, in load
    if line[0] != "#":
IndexError: string index out of range
Traceback (most recent call last):
  File "D:\condor\execute\dir_22652\model\slave_dir\ss_forward_model_20210813.py", line 166, in <module>
    run(input_file= 'input_param.csv')
  File "D:\condor\execute\dir_22652\model\slave_dir\ss_forward_model_20210813.py", line 80, in run
    Sim.mf = flopy.modflow.Modflow.load(os.path.basename(Sim.name_file), model_ws= os.path.dirname(Sim.name_file),
  File "D:\condor\execute\dir_22652\Miniconda3\lib\site-packages\flopy\modflow\mf.py", line 916, in load
    item.package.load(
  File "D:\condor\execute\dir_22652\Miniconda3\lib\site-packages\flopy\modflow\mflak.py", line 682, in load
    if line[0] != "#":
IndexError: string index out of range
Traceback (most recent call last):
  File "D:\condor\execute\dir_22652\model\slave_dir\ss_forward_model_20210813.py", line 166, in <module>
    run(input_file= 'input_param.csv')
  File "D:\condor\execute\dir_22652\model\slave_dir\ss_forward_model_20210813.py", line 80, in run
    Sim.mf = flopy.modflow.Modflow.load(os.path.basename(Sim.name_file), model_ws= os.path.dirname(Sim.name_file),
  File "D:\condor\execute\dir_22652\Miniconda3\lib\site-packages\flopy\modflow\mf.py", line 916, in load
    item.package.load(
  File "D:\condor\execute\dir_22652\Miniconda3\lib\site-packages\flopy\modflow\mflak.py", line 682, in load
    if line[0] != "#":
IndexError: string index out of range
Traceback (most recent call last):
  File "D:\condor\execute\dir_22652\model\slave_dir\ss_forward_model_20210813.py", line 166, in <module>
    run(input_file= 'input_param.csv')
  File "D:\condor\execute\dir_22652\model\slave_dir\ss_forward_model_20210813.py", line 80, in run
    Sim.mf = flopy.modflow.Modflow.load(os.path.basename(Sim.name_file), model_ws= os.path.dirname(Sim.name_file),
  File "D:\condor\execute\dir_22652\Miniconda3\lib\site-packages\flopy\modflow\mf.py", line 916, in load
    item.package.load(
  File "D:\condor\execute\dir_22652\Miniconda3\lib\site-packages\flopy\modflow\mflak.py", line 682, in load
    if line[0] != "#":
IndexError: string index out of range
Traceback (most recent call last):
  File "D:\condor\execute\dir_22652\model\slave_dir\ss_forward_model_20210813.py", line 166, in <module>
    run(input_file= 'input_param.csv')
  File "D:\condor\execute\dir_22652\model\slave_dir\ss_forward_model_20210813.py", line 80, in run
    Sim.mf = flopy.modflow.Modflow.load(os.path.basename(Sim.name_file), model_ws= os.path.dirname(Sim.name_file),
  File "D:\condor\execute\dir_22652\Miniconda3\lib\site-packages\flopy\modflow\mf.py", line 916, in load
    item.package.load(
  File "D:\condor\execute\dir_22652\Miniconda3\lib\site-packages\flopy\modflow\mflak.py", line 682, in load
    if line[0] != "#":
IndexError: string index out of range
Traceback (most recent call last):
  File "D:\condor\execute\dir_22652\model\slave_dir\ss_forward_model_20210813.py", line 166, in <module>
    run(input_file= 'input_param.csv')
  File "D:\condor\execute\dir_22652\model\slave_dir\ss_forward_model_20210813.py", line 80, in run
    Sim.mf = flopy.modflow.Modflow.load(os.path.basename(Sim.name_file), model_ws= os.path.dirname(Sim.name_file),
  File "D:\condor\execute\dir_22652\Miniconda3\lib\site-packages\flopy\modflow\mf.py", line 916, in load
    item.package.load(
  File "D:\condor\execute\dir_22652\Miniconda3\lib\site-packages\flopy\modflow\mflak.py", line 682, in load
    if line[0] != "#":
IndexError: string index out of range
Traceback (most recent call last):
  File "D:\condor\execute\dir_22652\model\slave_dir\ss_forward_model_20210813.py", line 166, in <module>
    run(input_file= 'input_param.csv')
  File "D:\condor\execute\dir_22652\model\slave_dir\ss_forward_model_20210813.py", line 80, in run
    Sim.mf = flopy.modflow.Modflow.load(os.path.basename(Sim.name_file), model_ws= os.path.dirname(Sim.name_file),
  File "D:\condor\execute\dir_22652\Miniconda3\lib\site-packages\flopy\modflow\mf.py", line 916, in load
    item.package.load(
  File "D:\condor\execute\dir_22652\Miniconda3\lib\site-packages\flopy\modflow\mflak.py", line 682, in load
    if line[0] != "#":
IndexError: string index out of range
Traceback (most recent call last):
  File "D:\condor\execute\dir_22652\model\slave_dir\ss_forward_model_20210813.py", line 166, in <module>
    run(input_file= 'input_param.csv')
  File "D:\condor\execute\dir_22652\model\slave_dir\ss_forward_model_20210813.py", line 80, in run
    Sim.mf = flopy.modflow.Modflow.load(os.path.basename(Sim.name_file), model_ws= os.path.dirname(Sim.name_file),
  File "D:\condor\execute\dir_22652\Miniconda3\lib\site-packages\flopy\modflow\mf.py", line 916, in load
    item.package.load(
  File "D:\condor\execute\dir_22652\Miniconda3\lib\site-packages\flopy\modflow\mflak.py", line 682, in load
    if line[0] != "#":
IndexError: string index out of range
Traceback (most recent call last):
  File "D:\condor\execute\dir_22652\model\slave_dir\ss_forward_model_20210813.py", line 166, in <module>
    run(input_file= 'input_param.csv')
  File "D:\condor\execute\dir_22652\model\slave_dir\ss_forward_model_20210813.py", line 80, in run
    Sim.mf = flopy.modflow.Modflow.load(os.path.basename(Sim.name_file), model_ws= os.path.dirname(Sim.name_file),
  File "D:\condor\execute\dir_22652\Miniconda3\lib\site-packages\flopy\modflow\mf.py", line 916, in load
    item.package.load(
  File "D:\condor\execute\dir_22652\Miniconda3\lib\site-packages\flopy\modflow\mflak.py", line 682, in load
    if line[0] != "#":
IndexError: string index out of range
Traceback (most recent call last):
  File "D:\condor\execute\dir_22652\model\slave_dir\ss_forward_model_20210813.py", line 166, in <module>
    run(input_file= 'input_param.csv')
  File "D:\condor\execute\dir_22652\model\slave_dir\ss_forward_model_20210813.py", line 80, in run
    Sim.mf = flopy.modflow.Modflow.load(os.path.basename(Sim.name_file), model_ws= os.path.dirname(Sim.name_file),
  File "D:\condor\execute\dir_22652\Miniconda3\lib\site-packages\flopy\modflow\mf.py", line 916, in load
    item.package.load(
  File "D:\condor\execute\dir_22652\Miniconda3\lib\site-packages\flopy\modflow\mflak.py", line 682, in load
    if line[0] != "#":
IndexError: string index out of range
Traceback (most recent call last):
  File "D:\condor\execute\dir_22652\model\slave_dir\ss_forward_model_20210813.py", line 166, in <module>
    run(input_file= 'input_param.csv')
  File "D:\condor\execute\dir_22652\model\slave_dir\ss_forward_model_20210813.py", line 80, in run
    Sim.mf = flopy.modflow.Modflow.load(os.path.basename(Sim.name_file), model_ws= os.path.dirname(Sim.name_file),
  File "D:\condor\execute\dir_22652\Miniconda3\lib\site-packages\flopy\modflow\mf.py", line 916, in load
    item.package.load(
  File "D:\condor\execute\dir_22652\Miniconda3\lib\site-packages\flopy\modflow\mflak.py", line 682, in load
    if line[0] != "#":
IndexError: string index out of range
Traceback (most recent call last):
  File "D:\condor\execute\dir_22652\model\slave_dir\ss_forward_model_20210813.py", line 166, in <module>
    run(input_file= 'input_param.csv')
  File "D:\condor\execute\dir_22652\model\slave_dir\ss_forward_model_20210813.py", line 80, in run
    Sim.mf = flopy.modflow.Modflow.load(os.path.basename(Sim.name_file), model_ws= os.path.dirname(Sim.name_file),
  File "D:\condor\execute\dir_22652\Miniconda3\lib\site-packages\flopy\modflow\mf.py", line 916, in load
    item.package.load(
  File "D:\condor\execute\dir_22652\Miniconda3\lib\site-packages\flopy\modflow\mflak.py", line 682, in load
    if line[0] != "#":
IndexError: string index out of range
Traceback (most recent call last):
  File "D:\condor\execute\dir_22652\model\slave_dir\ss_forward_model_20210813.py", line 166, in <module>
    run(input_file= 'input_param.csv')
  File "D:\condor\execute\dir_22652\model\slave_dir\ss_forward_model_20210813.py", line 80, in run
    Sim.mf = flopy.modflow.Modflow.load(os.path.basename(Sim.name_file), model_ws= os.path.dirname(Sim.name_file),
  File "D:\condor\execute\dir_22652\Miniconda3\lib\site-packages\flopy\modflow\mf.py", line 916, in load
    item.package.load(
  File "D:\condor\execute\dir_22652\Miniconda3\lib\site-packages\flopy\modflow\mflak.py", line 682, in load
    if line[0] != "#":
IndexError: string index out of range
Traceback (most recent call last):
  File "D:\condor\execute\dir_22652\model\slave_dir\ss_forward_model_20210813.py", line 166, in <module>
    run(input_file= 'input_param.csv')
  File "D:\condor\execute\dir_22652\model\slave_dir\ss_forward_model_20210813.py", line 80, in run
    Sim.mf = flopy.modflow.Modflow.load(os.path.basename(Sim.name_file), model_ws= os.path.dirname(Sim.name_file),
  File "D:\condor\execute\dir_22652\Miniconda3\lib\site-packages\flopy\modflow\mf.py", line 916, in load
    item.package.load(
  File "D:\condor\execute\dir_22652\Miniconda3\lib\site-packages\flopy\modflow\mflak.py", line 682, in load
    if line[0] != "#":
IndexError: string index out of range
Traceback (most recent call last):
  File "D:\condor\execute\dir_22652\model\slave_dir\ss_forward_model_20210813.py", line 166, in <module>
    run(input_file= 'input_param.csv')
  File "D:\condor\execute\dir_22652\model\slave_dir\ss_forward_model_20210813.py", line 80, in run
    Sim.mf = flopy.modflow.Modflow.load(os.path.basename(Sim.name_file), model_ws= os.path.dirname(Sim.name_file),
  File "D:\condor\execute\dir_22652\Miniconda3\lib\site-packages\flopy\modflow\mf.py", line 916, in load
    item.package.load(
  File "D:\condor\execute\dir_22652\Miniconda3\lib\site-packages\flopy\modflow\mflak.py", line 682, in load
    if line[0] != "#":
IndexError: string index out of range
Traceback (most recent call last):
  File "D:\condor\execute\dir_22652\model\slave_dir\ss_forward_model_20210813.py", line 166, in <module>
    run(input_file= 'input_param.csv')
  File "D:\condor\execute\dir_22652\model\slave_dir\ss_forward_model_20210813.py", line 80, in run
    Sim.mf = flopy.modflow.Modflow.load(os.path.basename(Sim.name_file), model_ws= os.path.dirname(Sim.name_file),
  File "D:\condor\execute\dir_22652\Miniconda3\lib\site-packages\flopy\modflow\mf.py", line 916, in load
    item.package.load(
  File "D:\condor\execute\dir_22652\Miniconda3\lib\site-packages\flopy\modflow\mflak.py", line 682, in load
    if line[0] != "#":
IndexError: string index out of range
Traceback (most recent call last):
  File "D:\condor\execute\dir_22652\model\slave_dir\ss_forward_model_20210813.py", line 166, in <module>
    run(input_file= 'input_param.csv')
  File "D:\condor\execute\dir_22652\model\slave_dir\ss_forward_model_20210813.py", line 80, in run
    Sim.mf = flopy.modflow.Modflow.load(os.path.basename(Sim.name_file), model_ws= os.path.dirname(Sim.name_file),
  File "D:\condor\execute\dir_22652\Miniconda3\lib\site-packages\flopy\modflow\mf.py", line 916, in load
    item.package.load(
  File "D:\condor\execute\dir_22652\Miniconda3\lib\site-packages\flopy\modflow\mflak.py", line 682, in load
    if line[0] != "#":
IndexError: string index out of range
Traceback (most recent call last):
  File "D:\condor\execute\dir_22652\model\slave_dir\ss_forward_model_20210813.py", line 166, in <module>
    run(input_file= 'input_param.csv')
  File "D:\condor\execute\dir_22652\model\slave_dir\ss_forward_model_20210813.py", line 80, in run
    Sim.mf = flopy.modflow.Modflow.load(os.path.basename(Sim.name_file), model_ws= os.path.dirname(Sim.name_file),
  File "D:\condor\execute\dir_22652\Miniconda3\lib\site-packages\flopy\modflow\mf.py", line 916, in load
    item.package.load(
  File "D:\condor\execute\dir_22652\Miniconda3\lib\site-packages\flopy\modflow\mflak.py", line 682, in load
    if line[0] != "#":
IndexError: string index out of range
Traceback (most recent call last):
  File "D:\condor\execute\dir_22652\model\slave_dir\ss_forward_model_20210813.py", line 166, in <module>
    run(input_file= 'input_param.csv')
  File "D:\condor\execute\dir_22652\model\slave_dir\ss_forward_model_20210813.py", line 80, in run
    Sim.mf = flopy.modflow.Modflow.load(os.path.basename(Sim.name_file), model_ws= os.path.dirname(Sim.name_file),
  File "D:\condor\execute\dir_22652\Miniconda3\lib\site-packages\flopy\modflow\mf.py", line 916, in load
    item.package.load(
  File "D:\condor\execute\dir_22652\Miniconda3\lib\site-packages\flopy\modflow\mflak.py", line 682, in load
    if line[0] != "#":
IndexError: string index out of range
Traceback (most recent call last):
  File "D:\condor\execute\dir_22652\model\slave_dir\ss_forward_model_20210813.py", line 166, in <module>
    run(input_file= 'input_param.csv')
  File "D:\condor\execute\dir_22652\model\slave_dir\ss_forward_model_20210813.py", line 80, in run
    Sim.mf = flopy.modflow.Modflow.load(os.path.basename(Sim.name_file), model_ws= os.path.dirname(Sim.name_file),
  File "D:\condor\execute\dir_22652\Miniconda3\lib\site-packages\flopy\modflow\mf.py", line 916, in load
    item.package.load(
  File "D:\condor\execute\dir_22652\Miniconda3\lib\site-packages\flopy\modflow\mflak.py", line 682, in load
    if line[0] != "#":
IndexError: string index out of range
Traceback (most recent call last):
  File "D:\condor\execute\dir_22652\model\slave_dir\ss_forward_model_20210813.py", line 166, in <module>
    run(input_file= 'input_param.csv')
  File "D:\condor\execute\dir_22652\model\slave_dir\ss_forward_model_20210813.py", line 80, in run
    Sim.mf = flopy.modflow.Modflow.load(os.path.basename(Sim.name_file), model_ws= os.path.dirname(Sim.name_file),
  File "D:\condor\execute\dir_22652\Miniconda3\lib\site-packages\flopy\modflow\mf.py", line 916, in load
    item.package.load(
  File "D:\condor\execute\dir_22652\Miniconda3\lib\site-packages\flopy\modflow\mflak.py", line 682, in load
    if line[0] != "#":
IndexError: string index out of range
Traceback (most recent call last):
  File "D:\condor\execute\dir_22652\model\slave_dir\ss_forward_model_20210813.py", line 166, in <module>
    run(input_file= 'input_param.csv')
  File "D:\condor\execute\dir_22652\model\slave_dir\ss_forward_model_20210813.py", line 80, in run
    Sim.mf = flopy.modflow.Modflow.load(os.path.basename(Sim.name_file), model_ws= os.path.dirname(Sim.name_file),
  File "D:\condor\execute\dir_22652\Miniconda3\lib\site-packages\flopy\modflow\mf.py", line 916, in load
    item.package.load(
  File "D:\condor\execute\dir_22652\Miniconda3\lib\site-packages\flopy\modflow\mflak.py", line 682, in load
    if line[0] != "#":
IndexError: string index out of range
Traceback (most recent call last):
  File "D:\condor\execute\dir_22652\model\slave_dir\ss_forward_model_20210813.py", line 166, in <module>
    run(input_file= 'input_param.csv')
  File "D:\condor\execute\dir_22652\model\slave_dir\ss_forward_model_20210813.py", line 80, in run
    Sim.mf = flopy.modflow.Modflow.load(os.path.basename(Sim.name_file), model_ws= os.path.dirname(Sim.name_file),
  File "D:\condor\execute\dir_22652\Miniconda3\lib\site-packages\flopy\modflow\mf.py", line 916, in load
    item.package.load(
  File "D:\condor\execute\dir_22652\Miniconda3\lib\site-packages\flopy\modflow\mflak.py", line 682, in load
    if line[0] != "#":
IndexError: string index out of range
Traceback (most recent call last):
  File "D:\condor\execute\dir_22652\model\slave_dir\ss_forward_model_20210813.py", line 166, in <module>
    run(input_file= 'input_param.csv')
  File "D:\condor\execute\dir_22652\model\slave_dir\ss_forward_model_20210813.py", line 80, in run
    Sim.mf = flopy.modflow.Modflow.load(os.path.basename(Sim.name_file), model_ws= os.path.dirname(Sim.name_file),
  File "D:\condor\execute\dir_22652\Miniconda3\lib\site-packages\flopy\modflow\mf.py", line 916, in load
    item.package.load(
  File "D:\condor\execute\dir_22652\Miniconda3\lib\site-packages\flopy\modflow\mflak.py", line 682, in load
    if line[0] != "#":
IndexError: string index out of range
Traceback (most recent call last):
  File "D:\condor\execute\dir_22652\model\slave_dir\ss_forward_model_20210813.py", line 166, in <module>
    run(input_file= 'input_param.csv')
  File "D:\condor\execute\dir_22652\model\slave_dir\ss_forward_model_20210813.py", line 80, in run
    Sim.mf = flopy.modflow.Modflow.load(os.path.basename(Sim.name_file), model_ws= os.path.dirname(Sim.name_file),
  File "D:\condor\execute\dir_22652\Miniconda3\lib\site-packages\flopy\modflow\mf.py", line 916, in load
    item.package.load(
  File "D:\condor\execute\dir_22652\Miniconda3\lib\site-packages\flopy\modflow\mflak.py", line 682, in load
    if line[0] != "#":
IndexError: string index out of range
Traceback (most recent call last):
  File "D:\condor\execute\dir_22652\model\slave_dir\ss_forward_model_20210813.py", line 166, in <module>
    run(input_file= 'input_param.csv')
  File "D:\condor\execute\dir_22652\model\slave_dir\ss_forward_model_20210813.py", line 80, in run
    Sim.mf = flopy.modflow.Modflow.load(os.path.basename(Sim.name_file), model_ws= os.path.dirname(Sim.name_file),
  File "D:\condor\execute\dir_22652\Miniconda3\lib\site-packages\flopy\modflow\mf.py", line 916, in load
    item.package.load(
  File "D:\condor\execute\dir_22652\Miniconda3\lib\site-packages\flopy\modflow\mflak.py", line 682, in load
    if line[0] != "#":
IndexError: string index out of range
Traceback (most recent call last):
  File "D:\condor\execute\dir_22652\model\slave_dir\ss_forward_model_20210813.py", line 166, in <module>
    run(input_file= 'input_param.csv')
  File "D:\condor\execute\dir_22652\model\slave_dir\ss_forward_model_20210813.py", line 80, in run
    Sim.mf = flopy.modflow.Modflow.load(os.path.basename(Sim.name_file), model_ws= os.path.dirname(Sim.name_file),
  File "D:\condor\execute\dir_22652\Miniconda3\lib\site-packages\flopy\modflow\mf.py", line 916, in load
    item.package.load(
  File "D:\condor\execute\dir_22652\Miniconda3\lib\site-packages\flopy\modflow\mflak.py", line 682, in load
    if line[0] != "#":
IndexError: string index out of range
Traceback (most recent call last):
  File "D:\condor\execute\dir_22652\model\slave_dir\ss_forward_model_20210813.py", line 166, in <module>
    run(input_file= 'input_param.csv')
  File "D:\condor\execute\dir_22652\model\slave_dir\ss_forward_model_20210813.py", line 80, in run
    Sim.mf = flopy.modflow.Modflow.load(os.path.basename(Sim.name_file), model_ws= os.path.dirname(Sim.name_file),
  File "D:\condor\execute\dir_22652\Miniconda3\lib\site-packages\flopy\modflow\mf.py", line 916, in load
    item.package.load(
  File "D:\condor\execute\dir_22652\Miniconda3\lib\site-packages\flopy\modflow\mflak.py", line 682, in load
    if line[0] != "#":
IndexError: string index out of range
Traceback (most recent call last):
  File "D:\condor\execute\dir_22652\model\slave_dir\ss_forward_model_20210813.py", line 166, in <module>
    run(input_file= 'input_param.csv')
  File "D:\condor\execute\dir_22652\model\slave_dir\ss_forward_model_20210813.py", line 80, in run
    Sim.mf = flopy.modflow.Modflow.load(os.path.basename(Sim.name_file), model_ws= os.path.dirname(Sim.name_file),
  File "D:\condor\execute\dir_22652\Miniconda3\lib\site-packages\flopy\modflow\mf.py", line 916, in load
    item.package.load(
  File "D:\condor\execute\dir_22652\Miniconda3\lib\site-packages\flopy\modflow\mflak.py", line 682, in load
    if line[0] != "#":
IndexError: string index out of range
Traceback (most recent call last):
  File "D:\condor\execute\dir_22652\model\slave_dir\ss_forward_model_20210813.py", line 166, in <module>
    run(input_file= 'input_param.csv')
  File "D:\condor\execute\dir_22652\model\slave_dir\ss_forward_model_20210813.py", line 80, in run
    Sim.mf = flopy.modflow.Modflow.load(os.path.basename(Sim.name_file), model_ws= os.path.dirname(Sim.name_file),
  File "D:\condor\execute\dir_22652\Miniconda3\lib\site-packages\flopy\modflow\mf.py", line 916, in load
    item.package.load(
  File "D:\condor\execute\dir_22652\Miniconda3\lib\site-packages\flopy\modflow\mflak.py", line 682, in load
    if line[0] != "#":
IndexError: string index out of range
Traceback (most recent call last):
  File "D:\condor\execute\dir_22652\model\slave_dir\ss_forward_model_20210813.py", line 166, in <module>
    run(input_file= 'input_param.csv')
  File "D:\condor\execute\dir_22652\model\slave_dir\ss_forward_model_20210813.py", line 80, in run
    Sim.mf = flopy.modflow.Modflow.load(os.path.basename(Sim.name_file), model_ws= os.path.dirname(Sim.name_file),
  File "D:\condor\execute\dir_22652\Miniconda3\lib\site-packages\flopy\modflow\mf.py", line 916, in load
    item.package.load(
  File "D:\condor\execute\dir_22652\Miniconda3\lib\site-packages\flopy\modflow\mflak.py", line 682, in load
    if line[0] != "#":
IndexError: string index out of range
Traceback (most recent call last):
  File "D:\condor\execute\dir_22652\model\slave_dir\ss_forward_model_20210813.py", line 166, in <module>
    run(input_file= 'input_param.csv')
  File "D:\condor\execute\dir_22652\model\slave_dir\ss_forward_model_20210813.py", line 80, in run
    Sim.mf = flopy.modflow.Modflow.load(os.path.basename(Sim.name_file), model_ws= os.path.dirname(Sim.name_file),
  File "D:\condor\execute\dir_22652\Miniconda3\lib\site-packages\flopy\modflow\mf.py", line 916, in load
    item.package.load(
  File "D:\condor\execute\dir_22652\Miniconda3\lib\site-packages\flopy\modflow\mflak.py", line 682, in load
    if line[0] != "#":
IndexError: string index out of range
Traceback (most recent call last):
  File "D:\condor\execute\dir_22652\model\slave_dir\ss_forward_model_20210813.py", line 166, in <module>
    run(input_file= 'input_param.csv')
  File "D:\condor\execute\dir_22652\model\slave_dir\ss_forward_model_20210813.py", line 80, in run
    Sim.mf = flopy.modflow.Modflow.load(os.path.basename(Sim.name_file), model_ws= os.path.dirname(Sim.name_file),
  File "D:\condor\execute\dir_22652\Miniconda3\lib\site-packages\flopy\modflow\mf.py", line 916, in load
    item.package.load(
  File "D:\condor\execute\dir_22652\Miniconda3\lib\site-packages\flopy\modflow\mflak.py", line 682, in load
    if line[0] != "#":
IndexError: string index out of range
Traceback (most recent call last):
  File "D:\condor\execute\dir_22652\model\slave_dir\ss_forward_model_20210813.py", line 166, in <module>
    run(input_file= 'input_param.csv')
  File "D:\condor\execute\dir_22652\model\slave_dir\ss_forward_model_20210813.py", line 80, in run
    Sim.mf = flopy.modflow.Modflow.load(os.path.basename(Sim.name_file), model_ws= os.path.dirname(Sim.name_file),
  File "D:\condor\execute\dir_22652\Miniconda3\lib\site-packages\flopy\modflow\mf.py", line 916, in load
    item.package.load(
  File "D:\condor\execute\dir_22652\Miniconda3\lib\site-packages\flopy\modflow\mflak.py", line 682, in load
    if line[0] != "#":
IndexError: string index out of range
Traceback (most recent call last):
  File "D:\condor\execute\dir_22652\model\slave_dir\ss_forward_model_20210813.py", line 166, in <module>
    run(input_file= 'input_param.csv')
  File "D:\condor\execute\dir_22652\model\slave_dir\ss_forward_model_20210813.py", line 80, in run
    Sim.mf = flopy.modflow.Modflow.load(os.path.basename(Sim.name_file), model_ws= os.path.dirname(Sim.name_file),
  File "D:\condor\execute\dir_22652\Miniconda3\lib\site-packages\flopy\modflow\mf.py", line 916, in load
    item.package.load(
  File "D:\condor\execute\dir_22652\Miniconda3\lib\site-packages\flopy\modflow\mflak.py", line 682, in load
    if line[0] != "#":
IndexError: string index out of range
Traceback (most recent call last):
  File "D:\condor\execute\dir_22652\model\slave_dir\ss_forward_model_20210813.py", line 166, in <module>
    run(input_file= 'input_param.csv')
  File "D:\condor\execute\dir_22652\model\slave_dir\ss_forward_model_20210813.py", line 80, in run
    Sim.mf = flopy.modflow.Modflow.load(os.path.basename(Sim.name_file), model_ws= os.path.dirname(Sim.name_file),
  File "D:\condor\execute\dir_22652\Miniconda3\lib\site-packages\flopy\modflow\mf.py", line 916, in load
    item.package.load(
  File "D:\condor\execute\dir_22652\Miniconda3\lib\site-packages\flopy\modflow\mflak.py", line 682, in load
    if line[0] != "#":
IndexError: string index out of range
Traceback (most recent call last):
  File "D:\condor\execute\dir_22652\model\slave_dir\ss_forward_model_20210813.py", line 166, in <module>
    run(input_file= 'input_param.csv')
  File "D:\condor\execute\dir_22652\model\slave_dir\ss_forward_model_20210813.py", line 80, in run
    Sim.mf = flopy.modflow.Modflow.load(os.path.basename(Sim.name_file), model_ws= os.path.dirname(Sim.name_file),
  File "D:\condor\execute\dir_22652\Miniconda3\lib\site-packages\flopy\modflow\mf.py", line 916, in load
    item.package.load(
  File "D:\condor\execute\dir_22652\Miniconda3\lib\site-packages\flopy\modflow\mflak.py", line 682, in load
    if line[0] != "#":
IndexError: string index out of range
Traceback (most recent call last):
  File "D:\condor\execute\dir_22652\model\slave_dir\ss_forward_model_20210813.py", line 166, in <module>
    run(input_file= 'input_param.csv')
  File "D:\condor\execute\dir_22652\model\slave_dir\ss_forward_model_20210813.py", line 80, in run
    Sim.mf = flopy.modflow.Modflow.load(os.path.basename(Sim.name_file), model_ws= os.path.dirname(Sim.name_file),
  File "D:\condor\execute\dir_22652\Miniconda3\lib\site-packages\flopy\modflow\mf.py", line 916, in load
    item.package.load(
  File "D:\condor\execute\dir_22652\Miniconda3\lib\site-packages\flopy\modflow\mflak.py", line 682, in load
    if line[0] != "#":
IndexError: string index out of range
Traceback (most recent call last):
  File "D:\condor\execute\dir_22652\model\slave_dir\ss_forward_model_20210813.py", line 166, in <module>
    run(input_file= 'input_param.csv')
  File "D:\condor\execute\dir_22652\model\slave_dir\ss_forward_model_20210813.py", line 80, in run
    Sim.mf = flopy.modflow.Modflow.load(os.path.basename(Sim.name_file), model_ws= os.path.dirname(Sim.name_file),
  File "D:\condor\execute\dir_22652\Miniconda3\lib\site-packages\flopy\modflow\mf.py", line 916, in load
    item.package.load(
  File "D:\condor\execute\dir_22652\Miniconda3\lib\site-packages\flopy\modflow\mflak.py", line 682, in load
    if line[0] != "#":
IndexError: string index out of range
Traceback (most recent call last):
  File "D:\condor\execute\dir_22652\model\slave_dir\ss_forward_model_20210813.py", line 166, in <module>
    run(input_file= 'input_param.csv')
  File "D:\condor\execute\dir_22652\model\slave_dir\ss_forward_model_20210813.py", line 80, in run
    Sim.mf = flopy.modflow.Modflow.load(os.path.basename(Sim.name_file), model_ws= os.path.dirname(Sim.name_file),
  File "D:\condor\execute\dir_22652\Miniconda3\lib\site-packages\flopy\modflow\mf.py", line 916, in load
    item.package.load(
  File "D:\condor\execute\dir_22652\Miniconda3\lib\site-packages\flopy\modflow\mflak.py", line 682, in load
    if line[0] != "#":
IndexError: string index out of range
Traceback (most recent call last):
  File "D:\condor\execute\dir_22652\model\slave_dir\ss_forward_model_20210813.py", line 166, in <module>
    run(input_file= 'input_param.csv')
  File "D:\condor\execute\dir_22652\model\slave_dir\ss_forward_model_20210813.py", line 80, in run
    Sim.mf = flopy.modflow.Modflow.load(os.path.basename(Sim.name_file), model_ws= os.path.dirname(Sim.name_file),
  File "D:\condor\execute\dir_22652\Miniconda3\lib\site-packages\flopy\modflow\mf.py", line 916, in load
    item.package.load(
  File "D:\condor\execute\dir_22652\Miniconda3\lib\site-packages\flopy\modflow\mflak.py", line 682, in load
    if line[0] != "#":
IndexError: string index out of range
Traceback (most recent call last):
  File "D:\condor\execute\dir_22652\model\slave_dir\ss_forward_model_20210813.py", line 166, in <module>
    run(input_file= 'input_param.csv')
  File "D:\condor\execute\dir_22652\model\slave_dir\ss_forward_model_20210813.py", line 80, in run
    Sim.mf = flopy.modflow.Modflow.load(os.path.basename(Sim.name_file), model_ws= os.path.dirname(Sim.name_file),
  File "D:\condor\execute\dir_22652\Miniconda3\lib\site-packages\flopy\modflow\mf.py", line 916, in load
    item.package.load(
  File "D:\condor\execute\dir_22652\Miniconda3\lib\site-packages\flopy\modflow\mflak.py", line 682, in load
    if line[0] != "#":
IndexError: string index out of range
Traceback (most recent call last):
  File "D:\condor\execute\dir_22652\model\slave_dir\ss_forward_model_20210813.py", line 166, in <module>
    run(input_file= 'input_param.csv')
  File "D:\condor\execute\dir_22652\model\slave_dir\ss_forward_model_20210813.py", line 80, in run
    Sim.mf = flopy.modflow.Modflow.load(os.path.basename(Sim.name_file), model_ws= os.path.dirname(Sim.name_file),
  File "D:\condor\execute\dir_22652\Miniconda3\lib\site-packages\flopy\modflow\mf.py", line 916, in load
    item.package.load(
  File "D:\condor\execute\dir_22652\Miniconda3\lib\site-packages\flopy\modflow\mflak.py", line 682, in load
    if line[0] != "#":
IndexError: string index out of range
Traceback (most recent call last):
  File "D:\condor\execute\dir_22652\model\slave_dir\ss_forward_model_20210813.py", line 166, in <module>
    run(input_file= 'input_param.csv')
  File "D:\condor\execute\dir_22652\model\slave_dir\ss_forward_model_20210813.py", line 80, in run
    Sim.mf = flopy.modflow.Modflow.load(os.path.basename(Sim.name_file), model_ws= os.path.dirname(Sim.name_file),
  File "D:\condor\execute\dir_22652\Miniconda3\lib\site-packages\flopy\modflow\mf.py", line 916, in load
    item.package.load(
  File "D:\condor\execute\dir_22652\Miniconda3\lib\site-packages\flopy\modflow\mflak.py", line 682, in load
    if line[0] != "#":
IndexError: string index out of range
Traceback (most recent call last):
  File "D:\condor\execute\dir_22652\model\slave_dir\ss_forward_model_20210813.py", line 166, in <module>
    run(input_file= 'input_param.csv')
  File "D:\condor\execute\dir_22652\model\slave_dir\ss_forward_model_20210813.py", line 80, in run
    Sim.mf = flopy.modflow.Modflow.load(os.path.basename(Sim.name_file), model_ws= os.path.dirname(Sim.name_file),
  File "D:\condor\execute\dir_22652\Miniconda3\lib\site-packages\flopy\modflow\mf.py", line 916, in load
    item.package.load(
  File "D:\condor\execute\dir_22652\Miniconda3\lib\site-packages\flopy\modflow\mflak.py", line 682, in load
    if line[0] != "#":
IndexError: string index out of range
Traceback (most recent call last):
  File "D:\condor\execute\dir_22652\model\slave_dir\ss_forward_model_20210813.py", line 166, in <module>
    run(input_file= 'input_param.csv')
  File "D:\condor\execute\dir_22652\model\slave_dir\ss_forward_model_20210813.py", line 80, in run
    Sim.mf = flopy.modflow.Modflow.load(os.path.basename(Sim.name_file), model_ws= os.path.dirname(Sim.name_file),
  File "D:\condor\execute\dir_22652\Miniconda3\lib\site-packages\flopy\modflow\mf.py", line 916, in load
    item.package.load(
  File "D:\condor\execute\dir_22652\Miniconda3\lib\site-packages\flopy\modflow\mflak.py", line 682, in load
    if line[0] != "#":
IndexError: string index out of range
Traceback (most recent call last):
  File "D:\condor\execute\dir_22652\model\slave_dir\ss_forward_model_20210813.py", line 166, in <module>
    run(input_file= 'input_param.csv')
  File "D:\condor\execute\dir_22652\model\slave_dir\ss_forward_model_20210813.py", line 80, in run
    Sim.mf = flopy.modflow.Modflow.load(os.path.basename(Sim.name_file), model_ws= os.path.dirname(Sim.name_file),
  File "D:\condor\execute\dir_22652\Miniconda3\lib\site-packages\flopy\modflow\mf.py", line 916, in load
    item.package.load(
  File "D:\condor\execute\dir_22652\Miniconda3\lib\site-packages\flopy\modflow\mflak.py", line 682, in load
    if line[0] != "#":
IndexError: string index out of range
Traceback (most recent call last):
  File "D:\condor\execute\dir_22652\model\slave_dir\ss_forward_model_20210813.py", line 166, in <module>
    run(input_file= 'input_param.csv')
  File "D:\condor\execute\dir_22652\model\slave_dir\ss_forward_model_20210813.py", line 80, in run
    Sim.mf = flopy.modflow.Modflow.load(os.path.basename(Sim.name_file), model_ws= os.path.dirname(Sim.name_file),
  File "D:\condor\execute\dir_22652\Miniconda3\lib\site-packages\flopy\modflow\mf.py", line 916, in load
    item.package.load(
  File "D:\condor\execute\dir_22652\Miniconda3\lib\site-packages\flopy\modflow\mflak.py", line 682, in load
    if line[0] != "#":
IndexError: string index out of range
Traceback (most recent call last):
  File "D:\condor\execute\dir_22652\model\slave_dir\ss_forward_model_20210813.py", line 166, in <module>
    run(input_file= 'input_param.csv')
  File "D:\condor\execute\dir_22652\model\slave_dir\ss_forward_model_20210813.py", line 80, in run
    Sim.mf = flopy.modflow.Modflow.load(os.path.basename(Sim.name_file), model_ws= os.path.dirname(Sim.name_file),
  File "D:\condor\execute\dir_22652\Miniconda3\lib\site-packages\flopy\modflow\mf.py", line 916, in load
    item.package.load(
  File "D:\condor\execute\dir_22652\Miniconda3\lib\site-packages\flopy\modflow\mflak.py", line 682, in load
    if line[0] != "#":
IndexError: string index out of range
Traceback (most recent call last):
  File "D:\condor\execute\dir_22652\model\slave_dir\ss_forward_model_20210813.py", line 166, in <module>
    run(input_file= 'input_param.csv')
  File "D:\condor\execute\dir_22652\model\slave_dir\ss_forward_model_20210813.py", line 80, in run
    Sim.mf = flopy.modflow.Modflow.load(os.path.basename(Sim.name_file), model_ws= os.path.dirname(Sim.name_file),
  File "D:\condor\execute\dir_22652\Miniconda3\lib\site-packages\flopy\modflow\mf.py", line 916, in load
    item.package.load(
  File "D:\condor\execute\dir_22652\Miniconda3\lib\site-packages\flopy\modflow\mflak.py", line 682, in load
    if line[0] != "#":
IndexError: string index out of range
Traceback (most recent call last):
  File "D:\condor\execute\dir_22652\model\slave_dir\ss_forward_model_20210813.py", line 166, in <module>
    run(input_file= 'input_param.csv')
  File "D:\condor\execute\dir_22652\model\slave_dir\ss_forward_model_20210813.py", line 80, in run
    Sim.mf = flopy.modflow.Modflow.load(os.path.basename(Sim.name_file), model_ws= os.path.dirname(Sim.name_file),
  File "D:\condor\execute\dir_22652\Miniconda3\lib\site-packages\flopy\modflow\mf.py", line 916, in load
    item.package.load(
  File "D:\condor\execute\dir_22652\Miniconda3\lib\site-packages\flopy\modflow\mflak.py", line 682, in load
    if line[0] != "#":
IndexError: string index out of range
Traceback (most recent call last):
  File "D:\condor\execute\dir_22652\model\slave_dir\ss_forward_model_20210813.py", line 166, in <module>
    run(input_file= 'input_param.csv')
  File "D:\condor\execute\dir_22652\model\slave_dir\ss_forward_model_20210813.py", line 80, in run
    Sim.mf = flopy.modflow.Modflow.load(os.path.basename(Sim.name_file), model_ws= os.path.dirname(Sim.name_file),
  File "D:\condor\execute\dir_22652\Miniconda3\lib\site-packages\flopy\modflow\mf.py", line 916, in load
    item.package.load(
  File "D:\condor\execute\dir_22652\Miniconda3\lib\site-packages\flopy\modflow\mflak.py", line 682, in load
    if line[0] != "#":
IndexError: string index out of range
Traceback (most recent call last):
  File "D:\condor\execute\dir_22652\model\slave_dir\ss_forward_model_20210813.py", line 166, in <module>
    run(input_file= 'input_param.csv')
  File "D:\condor\execute\dir_22652\model\slave_dir\ss_forward_model_20210813.py", line 80, in run
    Sim.mf = flopy.modflow.Modflow.load(os.path.basename(Sim.name_file), model_ws= os.path.dirname(Sim.name_file),
  File "D:\condor\execute\dir_22652\Miniconda3\lib\site-packages\flopy\modflow\mf.py", line 916, in load
    item.package.load(
  File "D:\condor\execute\dir_22652\Miniconda3\lib\site-packages\flopy\modflow\mflak.py", line 682, in load
    if line[0] != "#":
IndexError: string index out of range
Traceback (most recent call last):
  File "D:\condor\execute\dir_22652\model\slave_dir\ss_forward_model_20210813.py", line 166, in <module>
    run(input_file= 'input_param.csv')
  File "D:\condor\execute\dir_22652\model\slave_dir\ss_forward_model_20210813.py", line 80, in run
    Sim.mf = flopy.modflow.Modflow.load(os.path.basename(Sim.name_file), model_ws= os.path.dirname(Sim.name_file),
  File "D:\condor\execute\dir_22652\Miniconda3\lib\site-packages\flopy\modflow\mf.py", line 916, in load
    item.package.load(
  File "D:\condor\execute\dir_22652\Miniconda3\lib\site-packages\flopy\modflow\mflak.py", line 682, in load
    if line[0] != "#":
IndexError: string index out of range
Traceback (most recent call last):
  File "D:\condor\execute\dir_22652\model\slave_dir\ss_forward_model_20210813.py", line 166, in <module>
    run(input_file= 'input_param.csv')
  File "D:\condor\execute\dir_22652\model\slave_dir\ss_forward_model_20210813.py", line 80, in run
    Sim.mf = flopy.modflow.Modflow.load(os.path.basename(Sim.name_file), model_ws= os.path.dirname(Sim.name_file),
  File "D:\condor\execute\dir_22652\Miniconda3\lib\site-packages\flopy\modflow\mf.py", line 916, in load
    item.package.load(
  File "D:\condor\execute\dir_22652\Miniconda3\lib\site-packages\flopy\modflow\mflak.py", line 682, in load
    if line[0] != "#":
IndexError: string index out of range
Traceback (most recent call last):
  File "D:\condor\execute\dir_22652\model\slave_dir\ss_forward_model_20210813.py", line 166, in <module>
    run(input_file= 'input_param.csv')
  File "D:\condor\execute\dir_22652\model\slave_dir\ss_forward_model_20210813.py", line 80, in run
    Sim.mf = flopy.modflow.Modflow.load(os.path.basename(Sim.name_file), model_ws= os.path.dirname(Sim.name_file),
  File "D:\condor\execute\dir_22652\Miniconda3\lib\site-packages\flopy\modflow\mf.py", line 916, in load
    item.package.load(
  File "D:\condor\execute\dir_22652\Miniconda3\lib\site-packages\flopy\modflow\mflak.py", line 682, in load
    if line[0] != "#":
IndexError: string index out of range
Traceback (most recent call last):
  File "D:\condor\execute\dir_22652\model\slave_dir\ss_forward_model_20210813.py", line 166, in <module>
    run(input_file= 'input_param.csv')
  File "D:\condor\execute\dir_22652\model\slave_dir\ss_forward_model_20210813.py", line 80, in run
    Sim.mf = flopy.modflow.Modflow.load(os.path.basename(Sim.name_file), model_ws= os.path.dirname(Sim.name_file),
  File "D:\condor\execute\dir_22652\Miniconda3\lib\site-packages\flopy\modflow\mf.py", line 916, in load
    item.package.load(
  File "D:\condor\execute\dir_22652\Miniconda3\lib\site-packages\flopy\modflow\mflak.py", line 682, in load
    if line[0] != "#":
IndexError: string index out of range
Traceback (most recent call last):
  File "D:\condor\execute\dir_22652\model\slave_dir\ss_forward_model_20210813.py", line 166, in <module>
    run(input_file= 'input_param.csv')
  File "D:\condor\execute\dir_22652\model\slave_dir\ss_forward_model_20210813.py", line 80, in run
    Sim.mf = flopy.modflow.Modflow.load(os.path.basename(Sim.name_file), model_ws= os.path.dirname(Sim.name_file),
  File "D:\condor\execute\dir_22652\Miniconda3\lib\site-packages\flopy\modflow\mf.py", line 916, in load
    item.package.load(
  File "D:\condor\execute\dir_22652\Miniconda3\lib\site-packages\flopy\modflow\mflak.py", line 682, in load
    if line[0] != "#":
IndexError: string index out of range
Traceback (most recent call last):
  File "D:\condor\execute\dir_22652\model\slave_dir\ss_forward_model_20210813.py", line 166, in <module>
    run(input_file= 'input_param.csv')
  File "D:\condor\execute\dir_22652\model\slave_dir\ss_forward_model_20210813.py", line 80, in run
    Sim.mf = flopy.modflow.Modflow.load(os.path.basename(Sim.name_file), model_ws= os.path.dirname(Sim.name_file),
  File "D:\condor\execute\dir_22652\Miniconda3\lib\site-packages\flopy\modflow\mf.py", line 916, in load
    item.package.load(
  File "D:\condor\execute\dir_22652\Miniconda3\lib\site-packages\flopy\modflow\mflak.py", line 682, in load
    if line[0] != "#":
IndexError: string index out of range
Traceback (most recent call last):
  File "D:\condor\execute\dir_22652\model\slave_dir\ss_forward_model_20210813.py", line 166, in <module>
    run(input_file= 'input_param.csv')
  File "D:\condor\execute\dir_22652\model\slave_dir\ss_forward_model_20210813.py", line 80, in run
    Sim.mf = flopy.modflow.Modflow.load(os.path.basename(Sim.name_file), model_ws= os.path.dirname(Sim.name_file),
  File "D:\condor\execute\dir_22652\Miniconda3\lib\site-packages\flopy\modflow\mf.py", line 916, in load
    item.package.load(
  File "D:\condor\execute\dir_22652\Miniconda3\lib\site-packages\flopy\modflow\mflak.py", line 682, in load
    if line[0] != "#":
IndexError: string index out of range
Traceback (most recent call last):
  File "D:\condor\execute\dir_22652\model\slave_dir\ss_forward_model_20210813.py", line 166, in <module>
    run(input_file= 'input_param.csv')
  File "D:\condor\execute\dir_22652\model\slave_dir\ss_forward_model_20210813.py", line 80, in run
    Sim.mf = flopy.modflow.Modflow.load(os.path.basename(Sim.name_file), model_ws= os.path.dirname(Sim.name_file),
  File "D:\condor\execute\dir_22652\Miniconda3\lib\site-packages\flopy\modflow\mf.py", line 916, in load
    item.package.load(
  File "D:\condor\execute\dir_22652\Miniconda3\lib\site-packages\flopy\modflow\mflak.py", line 682, in load
    if line[0] != "#":
IndexError: string index out of range
Traceback (most recent call last):
  File "D:\condor\execute\dir_22652\model\slave_dir\ss_forward_model_20210813.py", line 166, in <module>
    run(input_file= 'input_param.csv')
  File "D:\condor\execute\dir_22652\model\slave_dir\ss_forward_model_20210813.py", line 80, in run
    Sim.mf = flopy.modflow.Modflow.load(os.path.basename(Sim.name_file), model_ws= os.path.dirname(Sim.name_file),
  File "D:\condor\execute\dir_22652\Miniconda3\lib\site-packages\flopy\modflow\mf.py", line 916, in load
    item.package.load(
  File "D:\condor\execute\dir_22652\Miniconda3\lib\site-packages\flopy\modflow\mflak.py", line 682, in load
    if line[0] != "#":
IndexError: string index out of range
Traceback (most recent call last):
  File "D:\condor\execute\dir_22652\model\slave_dir\ss_forward_model_20210813.py", line 166, in <module>
    run(input_file= 'input_param.csv')
  File "D:\condor\execute\dir_22652\model\slave_dir\ss_forward_model_20210813.py", line 80, in run
    Sim.mf = flopy.modflow.Modflow.load(os.path.basename(Sim.name_file), model_ws= os.path.dirname(Sim.name_file),
  File "D:\condor\execute\dir_22652\Miniconda3\lib\site-packages\flopy\modflow\mf.py", line 916, in load
    item.package.load(
  File "D:\condor\execute\dir_22652\Miniconda3\lib\site-packages\flopy\modflow\mflak.py", line 682, in load
    if line[0] != "#":
IndexError: string index out of range
Traceback (most recent call last):
  File "D:\condor\execute\dir_22652\model\slave_dir\ss_forward_model_20210813.py", line 166, in <module>
    run(input_file= 'input_param.csv')
  File "D:\condor\execute\dir_22652\model\slave_dir\ss_forward_model_20210813.py", line 80, in run
    Sim.mf = flopy.modflow.Modflow.load(os.path.basename(Sim.name_file), model_ws= os.path.dirname(Sim.name_file),
  File "D:\condor\execute\dir_22652\Miniconda3\lib\site-packages\flopy\modflow\mf.py", line 916, in load
    item.package.load(
  File "D:\condor\execute\dir_22652\Miniconda3\lib\site-packages\flopy\modflow\mflak.py", line 682, in load
    if line[0] != "#":
IndexError: string index out of range
Traceback (most recent call last):
  File "D:\condor\execute\dir_22652\model\slave_dir\ss_forward_model_20210813.py", line 166, in <module>
    run(input_file= 'input_param.csv')
  File "D:\condor\execute\dir_22652\model\slave_dir\ss_forward_model_20210813.py", line 80, in run
    Sim.mf = flopy.modflow.Modflow.load(os.path.basename(Sim.name_file), model_ws= os.path.dirname(Sim.name_file),
  File "D:\condor\execute\dir_22652\Miniconda3\lib\site-packages\flopy\modflow\mf.py", line 916, in load
    item.package.load(
  File "D:\condor\execute\dir_22652\Miniconda3\lib\site-packages\flopy\modflow\mflak.py", line 682, in load
    if line[0] != "#":
IndexError: string index out of range
Traceback (most recent call last):
  File "D:\condor\execute\dir_22652\model\slave_dir\ss_forward_model_20210813.py", line 166, in <module>
    run(input_file= 'input_param.csv')
  File "D:\condor\execute\dir_22652\model\slave_dir\ss_forward_model_20210813.py", line 80, in run
    Sim.mf = flopy.modflow.Modflow.load(os.path.basename(Sim.name_file), model_ws= os.path.dirname(Sim.name_file),
  File "D:\condor\execute\dir_22652\Miniconda3\lib\site-packages\flopy\modflow\mf.py", line 916, in load
    item.package.load(
  File "D:\condor\execute\dir_22652\Miniconda3\lib\site-packages\flopy\modflow\mflak.py", line 682, in load
    if line[0] != "#":
IndexError: string index out of range
Traceback (most recent call last):
  File "D:\condor\execute\dir_22652\model\slave_dir\ss_forward_model_20210813.py", line 166, in <module>
    run(input_file= 'input_param.csv')
  File "D:\condor\execute\dir_22652\model\slave_dir\ss_forward_model_20210813.py", line 80, in run
    Sim.mf = flopy.modflow.Modflow.load(os.path.basename(Sim.name_file), model_ws= os.path.dirname(Sim.name_file),
  File "D:\condor\execute\dir_22652\Miniconda3\lib\site-packages\flopy\modflow\mf.py", line 916, in load
    item.package.load(
  File "D:\condor\execute\dir_22652\Miniconda3\lib\site-packages\flopy\modflow\mflak.py", line 682, in load
    if line[0] != "#":
IndexError: string index out of range
Traceback (most recent call last):
  File "D:\condor\execute\dir_22652\model\slave_dir\ss_forward_model_20210813.py", line 166, in <module>
    run(input_file= 'input_param.csv')
  File "D:\condor\execute\dir_22652\model\slave_dir\ss_forward_model_20210813.py", line 80, in run
    Sim.mf = flopy.modflow.Modflow.load(os.path.basename(Sim.name_file), model_ws= os.path.dirname(Sim.name_file),
  File "D:\condor\execute\dir_22652\Miniconda3\lib\site-packages\flopy\modflow\mf.py", line 916, in load
    item.package.load(
  File "D:\condor\execute\dir_22652\Miniconda3\lib\site-packages\flopy\modflow\mflak.py", line 682, in load
    if line[0] != "#":
IndexError: string index out of range
Traceback (most recent call last):
  File "D:\condor\execute\dir_22652\model\slave_dir\ss_forward_model_20210813.py", line 166, in <module>
    run(input_file= 'input_param.csv')
  File "D:\condor\execute\dir_22652\model\slave_dir\ss_forward_model_20210813.py", line 80, in run
    Sim.mf = flopy.modflow.Modflow.load(os.path.basename(Sim.name_file), model_ws= os.path.dirname(Sim.name_file),
  File "D:\condor\execute\dir_22652\Miniconda3\lib\site-packages\flopy\modflow\mf.py", line 916, in load
    item.package.load(
  File "D:\condor\execute\dir_22652\Miniconda3\lib\site-packages\flopy\modflow\mflak.py", line 682, in load
    if line[0] != "#":
IndexError: string index out of range
Traceback (most recent call last):
  File "D:\condor\execute\dir_22652\model\slave_dir\ss_forward_model_20210813.py", line 166, in <module>
    run(input_file= 'input_param.csv')
  File "D:\condor\execute\dir_22652\model\slave_dir\ss_forward_model_20210813.py", line 80, in run
    Sim.mf = flopy.modflow.Modflow.load(os.path.basename(Sim.name_file), model_ws= os.path.dirname(Sim.name_file),
  File "D:\condor\execute\dir_22652\Miniconda3\lib\site-packages\flopy\modflow\mf.py", line 916, in load
    item.package.load(
  File "D:\condor\execute\dir_22652\Miniconda3\lib\site-packages\flopy\modflow\mflak.py", line 682, in load
    if line[0] != "#":
IndexError: string index out of range
Traceback (most recent call last):
  File "D:\condor\execute\dir_22652\model\slave_dir\ss_forward_model_20210813.py", line 166, in <module>
    run(input_file= 'input_param.csv')
  File "D:\condor\execute\dir_22652\model\slave_dir\ss_forward_model_20210813.py", line 80, in run
    Sim.mf = flopy.modflow.Modflow.load(os.path.basename(Sim.name_file), model_ws= os.path.dirname(Sim.name_file),
  File "D:\condor\execute\dir_22652\Miniconda3\lib\site-packages\flopy\modflow\mf.py", line 916, in load
    item.package.load(
  File "D:\condor\execute\dir_22652\Miniconda3\lib\site-packages\flopy\modflow\mflak.py", line 682, in load
    if line[0] != "#":
IndexError: string index out of range
Traceback (most recent call last):
  File "D:\condor\execute\dir_22652\model\slave_dir\ss_forward_model_20210813.py", line 166, in <module>
    run(input_file= 'input_param.csv')
  File "D:\condor\execute\dir_22652\model\slave_dir\ss_forward_model_20210813.py", line 80, in run
    Sim.mf = flopy.modflow.Modflow.load(os.path.basename(Sim.name_file), model_ws= os.path.dirname(Sim.name_file),
  File "D:\condor\execute\dir_22652\Miniconda3\lib\site-packages\flopy\modflow\mf.py", line 916, in load
    item.package.load(
  File "D:\condor\execute\dir_22652\Miniconda3\lib\site-packages\flopy\modflow\mflak.py", line 682, in load
    if line[0] != "#":
IndexError: string index out of range
Traceback (most recent call last):
  File "D:\condor\execute\dir_22652\model\slave_dir\ss_forward_model_20210813.py", line 166, in <module>
    run(input_file= 'input_param.csv')
  File "D:\condor\execute\dir_22652\model\slave_dir\ss_forward_model_20210813.py", line 80, in run
    Sim.mf = flopy.modflow.Modflow.load(os.path.basename(Sim.name_file), model_ws= os.path.dirname(Sim.name_file),
  File "D:\condor\execute\dir_22652\Miniconda3\lib\site-packages\flopy\modflow\mf.py", line 916, in load
    item.package.load(
  File "D:\condor\execute\dir_22652\Miniconda3\lib\site-packages\flopy\modflow\mflak.py", line 682, in load
    if line[0] != "#":
IndexError: string index out of range
Traceback (most recent call last):
  File "D:\condor\execute\dir_22652\model\slave_dir\ss_forward_model_20210813.py", line 166, in <module>
    run(input_file= 'input_param.csv')
  File "D:\condor\execute\dir_22652\model\slave_dir\ss_forward_model_20210813.py", line 80, in run
    Sim.mf = flopy.modflow.Modflow.load(os.path.basename(Sim.name_file), model_ws= os.path.dirname(Sim.name_file),
  File "D:\condor\execute\dir_22652\Miniconda3\lib\site-packages\flopy\modflow\mf.py", line 916, in load
    item.package.load(
  File "D:\condor\execute\dir_22652\Miniconda3\lib\site-packages\flopy\modflow\mflak.py", line 682, in load
    if line[0] != "#":
IndexError: string index out of range
Traceback (most recent call last):
  File "D:\condor\execute\dir_22652\model\slave_dir\ss_forward_model_20210813.py", line 166, in <module>
    run(input_file= 'input_param.csv')
  File "D:\condor\execute\dir_22652\model\slave_dir\ss_forward_model_20210813.py", line 80, in run
    Sim.mf = flopy.modflow.Modflow.load(os.path.basename(Sim.name_file), model_ws= os.path.dirname(Sim.name_file),
  File "D:\condor\execute\dir_22652\Miniconda3\lib\site-packages\flopy\modflow\mf.py", line 916, in load
    item.package.load(
  File "D:\condor\execute\dir_22652\Miniconda3\lib\site-packages\flopy\modflow\mflak.py", line 682, in load
    if line[0] != "#":
IndexError: string index out of range
Traceback (most recent call last):
  File "D:\condor\execute\dir_22652\model\slave_dir\ss_forward_model_20210813.py", line 166, in <module>
    run(input_file= 'input_param.csv')
  File "D:\condor\execute\dir_22652\model\slave_dir\ss_forward_model_20210813.py", line 80, in run
    Sim.mf = flopy.modflow.Modflow.load(os.path.basename(Sim.name_file), model_ws= os.path.dirname(Sim.name_file),
  File "D:\condor\execute\dir_22652\Miniconda3\lib\site-packages\flopy\modflow\mf.py", line 916, in load
    item.package.load(
  File "D:\condor\execute\dir_22652\Miniconda3\lib\site-packages\flopy\modflow\mflak.py", line 682, in load
    if line[0] != "#":
IndexError: string index out of range
Traceback (most recent call last):
  File "D:\condor\execute\dir_22652\model\slave_dir\ss_forward_model_20210813.py", line 166, in <module>
    run(input_file= 'input_param.csv')
  File "D:\condor\execute\dir_22652\model\slave_dir\ss_forward_model_20210813.py", line 80, in run
    Sim.mf = flopy.modflow.Modflow.load(os.path.basename(Sim.name_file), model_ws= os.path.dirname(Sim.name_file),
  File "D:\condor\execute\dir_22652\Miniconda3\lib\site-packages\flopy\modflow\mf.py", line 916, in load
    item.package.load(
  File "D:\condor\execute\dir_22652\Miniconda3\lib\site-packages\flopy\modflow\mflak.py", line 682, in load
    if line[0] != "#":
IndexError: string index out of range
Traceback (most recent call last):
  File "D:\condor\execute\dir_22652\model\slave_dir\ss_forward_model_20210813.py", line 166, in <module>
    run(input_file= 'input_param.csv')
  File "D:\condor\execute\dir_22652\model\slave_dir\ss_forward_model_20210813.py", line 80, in run
    Sim.mf = flopy.modflow.Modflow.load(os.path.basename(Sim.name_file), model_ws= os.path.dirname(Sim.name_file),
  File "D:\condor\execute\dir_22652\Miniconda3\lib\site-packages\flopy\modflow\mf.py", line 916, in load
    item.package.load(
  File "D:\condor\execute\dir_22652\Miniconda3\lib\site-packages\flopy\modflow\mflak.py", line 682, in load
    if line[0] != "#":
IndexError: string index out of range
Traceback (most recent call last):
  File "D:\condor\execute\dir_22652\model\slave_dir\ss_forward_model_20210813.py", line 166, in <module>
    run(input_file= 'input_param.csv')
  File "D:\condor\execute\dir_22652\model\slave_dir\ss_forward_model_20210813.py", line 80, in run
    Sim.mf = flopy.modflow.Modflow.load(os.path.basename(Sim.name_file), model_ws= os.path.dirname(Sim.name_file),
[...]
  File "D:\condor\execute\dir_22652\model\slave_dir\ss_forward_model_20210813.py", line 166, in <module>
    run(input_file= 'input_param.csv')
  File "D:\condor\execute\dir_22652\model\slave_dir\ss_forward_model_20210813.py", line 80, in run
    Sim.mf = flopy.modflow.Modflow.load(os.path.basename(Sim.name_file), model_ws= os.path.dirname(Sim.name_file),
  File "D:\condor\execute\dir_22652\Miniconda3\lib\site-packages\flopy\modflow\mf.py", line 916, in load
    item.package.load(
  File "D:\condor\execute\dir_22652\Miniconda3\lib\site-packages\flopy\modflow\mflak.py", line 682, in load
    if line[0] != "#":
IndexError: string index out of range
Traceback (most recent call last):
  File "D:\condor\execute\dir_22652\model\slave_dir\ss_forward_model_20210813.py", line 166, in <module>
    run(input_file= 'input_param.csv')
  File "D:\condor\execute\dir_22652\model\slave_dir\ss_forward_model_20210813.py", line 80, in run
    Sim.mf = flopy.modflow.Modflow.load(os.path.basename(Sim.name_file), model_ws= os.path.dirname(Sim.name_file),
  File "D:\condor\execute\dir_22652\Miniconda3\lib\site-packages\flopy\modflow\mf.py", line 916, in load
    item.package.load(
  File "D:\condor\execute\dir_22652\Miniconda3\lib\site-packages\flopy\modflow\mflak.py", line 682, in load
    if line[0] != "#":
IndexError: string index out of range
Traceback (most recent call last):
  File "D:\condor\execute\dir_22652\model\slave_dir\ss_forward_model_20210813.py", line 166, in <module>
    run(input_file= 'input_param.csv')
  File "D:\condor\execute\dir_22652\model\slave_dir\ss_forward_model_20210813.py", line 80, in run
    Sim.mf = flopy.modflow.Modflow.load(os.path.basename(Sim.name_file), model_ws= os.path.dirname(Sim.name_file),
  File "D:\condor\execute\dir_22652\Miniconda3\lib\site-packages\flopy\modflow\mf.py", line 916, in load
    item.package.load(
  File "D:\condor\execute\dir_22652\Miniconda3\lib\site-packages\flopy\modflow\mflak.py", line 682, in load
    if line[0] != "#":
IndexError: string index out of range
Traceback (most recent call last):
  File "D:\condor\execute\dir_22652\model\slave_dir\ss_forward_model_20210813.py", line 166, in <module>
    run(input_file= 'input_param.csv')
  File "D:\condor\execute\dir_22652\model\slave_dir\ss_forward_model_20210813.py", line 80, in run
    Sim.mf = flopy.modflow.Modflow.load(os.path.basename(Sim.name_file), model_ws= os.path.dirname(Sim.name_file),
  File "D:\condor\execute\dir_22652\Miniconda3\lib\site-packages\flopy\modflow\mf.py", line 916, in load
    item.package.load(
  File "D:\condor\execute\dir_22652\Miniconda3\lib\site-packages\flopy\modflow\mflak.py", line 682, in load
    if line[0] != "#":
IndexError: string index out of range
Traceback (most recent call last):
  File "D:\condor\execute\dir_22652\model\slave_dir\ss_forward_model_20210813.py", line 166, in <module>
    run(input_file= 'input_param.csv')
  File "D:\condor\execute\dir_22652\model\slave_dir\ss_forward_model_20210813.py", line 80, in run
    Sim.mf = flopy.modflow.Modflow.load(os.path.basename(Sim.name_file), model_ws= os.path.dirname(Sim.name_file),
  File "D:\condor\execute\dir_22652\Miniconda3\lib\site-packages\flopy\modflow\mf.py", line 916, in load
    item.package.load(
  File "D:\condor\execute\dir_22652\Miniconda3\lib\site-packages\flopy\modflow\mflak.py", line 682, in load
    if line[0] != "#":
IndexError: string index out of range
Traceback (most recent call last):
  File "D:\condor\execute\dir_22652\model\slave_dir\ss_forward_model_20210813.py", line 166, in <module>
    run(input_file= 'input_param.csv')
  File "D:\condor\execute\dir_22652\model\slave_dir\ss_forward_model_20210813.py", line 80, in run
    Sim.mf = flopy.modflow.Modflow.load(os.path.basename(Sim.name_file), model_ws= os.path.dirname(Sim.name_file),
  File "D:\condor\execute\dir_22652\Miniconda3\lib\site-packages\flopy\modflow\mf.py", line 916, in load
    item.package.load(
  File "D:\condor\execute\dir_22652\Miniconda3\lib\site-packages\flopy\modflow\mflak.py", line 682, in load
    if line[0] != "#":
IndexError: string index out of range
Traceback (most recent call last):
  File "D:\condor\execute\dir_22652\model\slave_dir\ss_forward_model_20210813.py", line 166, in <module>
    run(input_file= 'input_param.csv')
  File "D:\condor\execute\dir_22652\model\slave_dir\ss_forward_model_20210813.py", line 80, in run
    Sim.mf = flopy.modflow.Modflow.load(os.path.basename(Sim.name_file), model_ws= os.path.dirname(Sim.name_file),
  File "D:\condor\execute\dir_22652\Miniconda3\lib\site-packages\flopy\modflow\mf.py", line 916, in load
    item.package.load(
  File "D:\condor\execute\dir_22652\Miniconda3\lib\site-packages\flopy\modflow\mflak.py", line 682, in load
    if line[0] != "#":
IndexError: string index out of range
Traceback (most recent call last):
  File "D:\condor\execute\dir_22652\model\slave_dir\ss_forward_model_20210813.py", line 166, in <module>
    run(input_file= 'input_param.csv')
  File "D:\condor\execute\dir_22652\model\slave_dir\ss_forward_model_20210813.py", line 80, in run
    Sim.mf = flopy.modflow.Modflow.load(os.path.basename(Sim.name_file), model_ws= os.path.dirname(Sim.name_file),
  File "D:\condor\execute\dir_22652\Miniconda3\lib\site-packages\flopy\modflow\mf.py", line 916, in load
    item.package.load(
  File "D:\condor\execute\dir_22652\Miniconda3\lib\site-packages\flopy\modflow\mflak.py", line 682, in load
    if line[0] != "#":
IndexError: string index out of range
Traceback (most recent call last):
  File "D:\condor\execute\dir_22652\model\slave_dir\ss_forward_model_20210813.py", line 166, in <module>
    run(input_file= 'input_param.csv')
  File "D:\condor\execute\dir_22652\model\slave_dir\ss_forward_model_20210813.py", line 80, in run
    Sim.mf = flopy.modflow.Modflow.load(os.path.basename(Sim.name_file), model_ws= os.path.dirname(Sim.name_file),
  File "D:\condor\execute\dir_22652\Miniconda3\lib\site-packages\flopy\modflow\mf.py", line 916, in load
    item.package.load(
  File "D:\condor\execute\dir_22652\Miniconda3\lib\site-packages\flopy\modflow\mflak.py", line 682, in load
    if line[0] != "#":
IndexError: string index out of range
Traceback (most recent call last):
  File "D:\condor\execute\dir_22652\model\slave_dir\ss_forward_model_20210813.py", line 166, in <module>
    run(input_file= 'input_param.csv')
  File "D:\condor\execute\dir_22652\model\slave_dir\ss_forward_model_20210813.py", line 80, in run
    Sim.mf = flopy.modflow.Modflow.load(os.path.basename(Sim.name_file), model_ws= os.path.dirname(Sim.name_file),
  File "D:\condor\execute\dir_22652\Miniconda3\lib\site-packages\flopy\modflow\mf.py", line 916, in load
    item.package.load(
  File "D:\condor\execute\dir_22652\Miniconda3\lib\site-packages\flopy\modflow\mflak.py", line 682, in load
    if line[0] != "#":
IndexError: string index out of range
Traceback (most recent call last):
  File "D:\condor\execute\dir_22652\model\slave_dir\ss_forward_model_20210813.py", line 166, in <module>
    run(input_file= 'input_param.csv')
  File "D:\condor\execute\dir_22652\model\slave_dir\ss_forward_model_20210813.py", line 80, in run
    Sim.mf = flopy.modflow.Modflow.load(os.path.basename(Sim.name_file), model_ws= os.path.dirname(Sim.name_file),
  File "D:\condor\execute\dir_22652\Miniconda3\lib\site-packages\flopy\modflow\mf.py", line 916, in load
    item.package.load(
  File "D:\condor\execute\dir_22652\Miniconda3\lib\site-packages\flopy\modflow\mflak.py", line 682, in load
    if line[0] != "#":
IndexError: string index out of range
Traceback (most recent call last):
  File "D:\condor\execute\dir_22652\model\slave_dir\ss_forward_model_20210813.py", line 166, in <module>
    run(input_file= 'input_param.csv')
  File "D:\condor\execute\dir_22652\model\slave_dir\ss_forward_model_20210813.py", line 80, in run
    Sim.mf = flopy.modflow.Modflow.load(os.path.basename(Sim.name_file), model_ws= os.path.dirname(Sim.name_file),
  File "D:\condor\execute\dir_22652\Miniconda3\lib\site-packages\flopy\modflow\mf.py", line 916, in load
    item.package.load(
  File "D:\condor\execute\dir_22652\Miniconda3\lib\site-packages\flopy\modflow\mflak.py", line 682, in load
    if line[0] != "#":
IndexError: string index out of range
Traceback (most recent call last):
  File "D:\condor\execute\dir_22652\model\slave_dir\ss_forward_model_20210813.py", line 166, in <module>
    run(input_file= 'input_param.csv')
  File "D:\condor\execute\dir_22652\model\slave_dir\ss_forward_model_20210813.py", line 80, in run
    Sim.mf = flopy.modflow.Modflow.load(os.path.basename(Sim.name_file), model_ws= os.path.dirname(Sim.name_file),
  File "D:\condor\execute\dir_22652\Miniconda3\lib\site-packages\flopy\modflow\mf.py", line 916, in load
    item.package.load(
  File "D:\condor\execute\dir_22652\Miniconda3\lib\site-packages\flopy\modflow\mflak.py", line 682, in load
    if line[0] != "#":
IndexError: string index out of range
Traceback (most recent call last):
  File "D:\condor\execute\dir_22652\model\slave_dir\ss_forward_model_20210813.py", line 166, in <module>
    run(input_file= 'input_param.csv')
  File "D:\condor\execute\dir_22652\model\slave_dir\ss_forward_model_20210813.py", line 80, in run
    Sim.mf = flopy.modflow.Modflow.load(os.path.basename(Sim.name_file), model_ws= os.path.dirname(Sim.name_file),
  File "D:\condor\execute\dir_22652\Miniconda3\lib\site-packages\flopy\modflow\mf.py", line 916, in load
    item.package.load(
  File "D:\condor\execute\dir_22652\Miniconda3\lib\site-packages\flopy\modflow\mflak.py", line 682, in load
    if line[0] != "#":
IndexError: string index out of range
Traceback (most recent call last):
  File "D:\condor\execute\dir_22652\model\slave_dir\ss_forward_model_20210813.py", line 166, in <module>
    run(input_file= 'input_param.csv')
  File "D:\condor\execute\dir_22652\model\slave_dir\ss_forward_model_20210813.py", line 80, in run
    Sim.mf = flopy.modflow.Modflow.load(os.path.basename(Sim.name_file), model_ws= os.path.dirname(Sim.name_file),
  File "D:\condor\execute\dir_22652\Miniconda3\lib\site-packages\flopy\modflow\mf.py", line 916, in load
    item.package.load(
  File "D:\condor\execute\dir_22652\Miniconda3\lib\site-packages\flopy\modflow\mflak.py", line 682, in load
    if line[0] != "#":
IndexError: string index out of range
Traceback (most recent call last):
  File "D:\condor\execute\dir_22652\model\slave_dir\ss_forward_model_20210813.py", line 166, in <module>
    run(input_file= 'input_param.csv')
  File "D:\condor\execute\dir_22652\model\slave_dir\ss_forward_model_20210813.py", line 80, in run
    Sim.mf = flopy.modflow.Modflow.load(os.path.basename(Sim.name_file), model_ws= os.path.dirname(Sim.name_file),
  File "D:\condor\execute\dir_22652\Miniconda3\lib\site-packages\flopy\modflow\mf.py", line 916, in load
    item.package.load(
  File "D:\condor\execute\dir_22652\Miniconda3\lib\site-packages\flopy\modflow\mflak.py", line 682, in load
    if line[0] != "#":
IndexError: string index out of range
Traceback (most recent call last):
  File "D:\condor\execute\dir_22652\model\slave_dir\ss_forward_model_20210813.py", line 166, in <module>
    run(input_file= 'input_param.csv')
  File "D:\condor\execute\dir_22652\model\slave_dir\ss_forward_model_20210813.py", line 80, in run
    Sim.mf = flopy.modflow.Modflow.load(os.path.basename(Sim.name_file), model_ws= os.path.dirname(Sim.name_file),
  File "D:\condor\execute\dir_22652\Miniconda3\lib\site-packages\flopy\modflow\mf.py", line 916, in load
    item.package.load(
  File "D:\condor\execute\dir_22652\Miniconda3\lib\site-packages\flopy\modflow\mflak.py", line 682, in load
    if line[0] != "#":
IndexError: string index out of range
Traceback (most recent call last):
  File "D:\condor\execute\dir_22652\model\slave_dir\ss_forward_model_20210813.py", line 166, in <module>
    run(input_file= 'input_param.csv')
  File "D:\condor\execute\dir_22652\model\slave_dir\ss_forward_model_20210813.py", line 80, in run
    Sim.mf = flopy.modflow.Modflow.load(os.path.basename(Sim.name_file), model_ws= os.path.dirname(Sim.name_file),
  File "D:\condor\execute\dir_22652\Miniconda3\lib\site-packages\flopy\modflow\mf.py", line 916, in load
    item.package.load(
  File "D:\condor\execute\dir_22652\Miniconda3\lib\site-packages\flopy\modflow\mflak.py", line 682, in load
    if line[0] != "#":
IndexError: string index out of range
Traceback (most recent call last):
  File "D:\condor\execute\dir_22652\model\slave_dir\ss_forward_model_20210813.py", line 166, in <module>
    run(input_file= 'input_param.csv')
  File "D:\condor\execute\dir_22652\model\slave_dir\ss_forward_model_20210813.py", line 80, in run
    Sim.mf = flopy.modflow.Modflow.load(os.path.basename(Sim.name_file), model_ws= os.path.dirname(Sim.name_file),
  File "D:\condor\execute\dir_22652\Miniconda3\lib\site-packages\flopy\modflow\mf.py", line 916, in load
    item.package.load(
  File "D:\condor\execute\dir_22652\Miniconda3\lib\site-packages\flopy\modflow\mflak.py", line 682, in load
    if line[0] != "#":
IndexError: string index out of range
Traceback (most recent call last):
  File "D:\condor\execute\dir_22652\model\slave_dir\ss_forward_model_20210813.py", line 166, in <module>
    run(input_file= 'input_param.csv')
  File "D:\condor\execute\dir_22652\model\slave_dir\ss_forward_model_20210813.py", line 80, in run
    Sim.mf = flopy.modflow.Modflow.load(os.path.basename(Sim.name_file), model_ws= os.path.dirname(Sim.name_file),
  File "D:\condor\execute\dir_22652\Miniconda3\lib\site-packages\flopy\modflow\mf.py", line 916, in load
    item.package.load(
  File "D:\condor\execute\dir_22652\Miniconda3\lib\site-packages\flopy\modflow\mflak.py", line 682, in load
    if line[0] != "#":
IndexError: string index out of range
Traceback (most recent call last):
  File "D:\condor\execute\dir_22652\model\slave_dir\ss_forward_model_20210813.py", line 166, in <module>
    run(input_file= 'input_param.csv')
  File "D:\condor\execute\dir_22652\model\slave_dir\ss_forward_model_20210813.py", line 80, in run
    Sim.mf = flopy.modflow.Modflow.load(os.path.basename(Sim.name_file), model_ws= os.path.dirname(Sim.name_file),
  File "D:\condor\execute\dir_22652\Miniconda3\lib\site-packages\flopy\modflow\mf.py", line 916, in load
    item.package.load(
  File "D:\condor\execute\dir_22652\Miniconda3\lib\site-packages\flopy\modflow\mflak.py", line 682, in load
    if line[0] != "#":
IndexError: string index out of range
Traceback (most recent call last):
  File "D:\condor\execute\dir_22652\model\slave_dir\ss_forward_model_20210813.py", line 166, in <module>
    run(input_file= 'input_param.csv')
  File "D:\condor\execute\dir_22652\model\slave_dir\ss_forward_model_20210813.py", line 80, in run
    Sim.mf = flopy.modflow.Modflow.load(os.path.basename(Sim.name_file), model_ws= os.path.dirname(Sim.name_file),
  File "D:\condor\execute\dir_22652\Miniconda3\lib\site-packages\flopy\modflow\mf.py", line 916, in load
    item.package.load(
  File "D:\condor\execute\dir_22652\Miniconda3\lib\site-packages\flopy\modflow\mflak.py", line 682, in load
    if line[0] != "#":
IndexError: string index out of range
Traceback (most recent call last):
  File "D:\condor\execute\dir_22652\model\slave_dir\ss_forward_model_20210813.py", line 166, in <module>
    run(input_file= 'input_param.csv')
  File "D:\condor\execute\dir_22652\model\slave_dir\ss_forward_model_20210813.py", line 80, in run
    Sim.mf = flopy.modflow.Modflow.load(os.path.basename(Sim.name_file), model_ws= os.path.dirname(Sim.name_file),
  File "D:\condor\execute\dir_22652\Miniconda3\lib\site-packages\flopy\modflow\mf.py", line 916, in load
    item.package.load(
  File "D:\condor\execute\dir_22652\Miniconda3\lib\site-packages\flopy\modflow\mflak.py", line 682, in load
    if line[0] != "#":
IndexError: string index out of range
Traceback (most recent call last):
  File "D:\condor\execute\dir_22652\model\slave_dir\ss_forward_model_20210813.py", line 166, in <module>
    run(input_file= 'input_param.csv')
  File "D:\condor\execute\dir_22652\model\slave_dir\ss_forward_model_20210813.py", line 80, in run
    Sim.mf = flopy.modflow.Modflow.load(os.path.basename(Sim.name_file), model_ws= os.path.dirname(Sim.name_file),
  File "D:\condor\execute\dir_22652\Miniconda3\lib\site-packages\flopy\modflow\mf.py", line 916, in load
    item.package.load(
  File "D:\condor\execute\dir_22652\Miniconda3\lib\site-packages\flopy\modflow\mflak.py", line 682, in load
    if line[0] != "#":
IndexError: string index out of range
Traceback (most recent call last):
  File "D:\condor\execute\dir_22652\model\slave_dir\ss_forward_model_20210813.py", line 166, in <module>
    run(input_file= 'input_param.csv')
  File "D:\condor\execute\dir_22652\model\slave_dir\ss_forward_model_20210813.py", line 80, in run
    Sim.mf = flopy.modflow.Modflow.load(os.path.basename(Sim.name_file), model_ws= os.path.dirname(Sim.name_file),
  File "D:\condor\execute\dir_22652\Miniconda3\lib\site-packages\flopy\modflow\mf.py", line 916, in load
    item.package.load(
  File "D:\condor\execute\dir_22652\Miniconda3\lib\site-packages\flopy\modflow\mflak.py", line 682, in load
    if line[0] != "#":
IndexError: string index out of range
Traceback (most recent call last):
  File "D:\condor\execute\dir_22652\model\slave_dir\ss_forward_model_20210813.py", line 166, in <module>
    run(input_file= 'input_param.csv')
  File "D:\condor\execute\dir_22652\model\slave_dir\ss_forward_model_20210813.py", line 80, in run
    Sim.mf = flopy.modflow.Modflow.load(os.path.basename(Sim.name_file), model_ws= os.path.dirname(Sim.name_file),
  File "D:\condor\execute\dir_22652\Miniconda3\lib\site-packages\flopy\modflow\mf.py", line 916, in load
    item.package.load(
  File "D:\condor\execute\dir_22652\Miniconda3\lib\site-packages\flopy\modflow\mflak.py", line 682, in load
    if line[0] != "#":
IndexError: string index out of range
Traceback (most recent call last):
  File "D:\condor\execute\dir_22652\model\slave_dir\ss_forward_model_20210813.py", line 166, in <module>
    run(input_file= 'input_param.csv')
  File "D:\condor\execute\dir_22652\model\slave_dir\ss_forward_model_20210813.py", line 80, in run
    Sim.mf = flopy.modflow.Modflow.load(os.path.basename(Sim.name_file), model_ws= os.path.dirname(Sim.name_file),
  File "D:\condor\execute\dir_22652\Miniconda3\lib\site-packages\flopy\modflow\mf.py", line 916, in load
    item.package.load(
  File "D:\condor\execute\dir_22652\Miniconda3\lib\site-packages\flopy\modflow\mflak.py", line 682, in load
    if line[0] != "#":
IndexError: string index out of range
Traceback (most recent call last):
  File "D:\condor\execute\dir_22652\model\slave_dir\ss_forward_model_20210813.py", line 166, in <module>
    run(input_file= 'input_param.csv')
  File "D:\condor\execute\dir_22652\model\slave_dir\ss_forward_model_20210813.py", line 80, in run
    Sim.mf = flopy.modflow.Modflow.load(os.path.basename(Sim.name_file), model_ws= os.path.dirname(Sim.name_file),
  File "D:\condor\execute\dir_22652\Miniconda3\lib\site-packages\flopy\modflow\mf.py", line 916, in load
    item.package.load(
  File "D:\condor\execute\dir_22652\Miniconda3\lib\site-packages\flopy\modflow\mflak.py", line 682, in load
    if line[0] != "#":
IndexError: string index out of range
Traceback (most recent call last):
  File "D:\condor\execute\dir_22652\model\slave_dir\ss_forward_model_20210813.py", line 166, in <module>
    run(input_file= 'input_param.csv')
  File "D:\condor\execute\dir_22652\model\slave_dir\ss_forward_model_20210813.py", line 80, in run
    Sim.mf = flopy.modflow.Modflow.load(os.path.basename(Sim.name_file), model_ws= os.path.dirname(Sim.name_file),
  File "D:\condor\execute\dir_22652\Miniconda3\lib\site-packages\flopy\modflow\mf.py", line 916, in load
    item.package.load(
  File "D:\condor\execute\dir_22652\Miniconda3\lib\site-packages\flopy\modflow\mflak.py", line 682, in load
    if line[0] != "#":
IndexError: string index out of range
