             pestpp-glm 5.1.0

    by The PEST++ Development Team



version: 5.1.0
binary compiled on Sep 17 2021 at 09:18:04

using control file: "ss_mf.pst"

in directory: "C:\work\projects\russian_river\model\RR_GSFLOW\MODFLOW\modflow_calibration\ss_calibration\slave_dir"
on host: "IGSWCGWWLT6828"
started at 12/27/21 09:48:55


Note 'NOPTMAX' == 0, switching to forgiveness mode when checking inputs

Note: 3 unused lines in pest control file:
  -->  line number 6: '2.000000E+01  -3.000000E+00   3.000000E-01   1.000000E-02        -7' 
  -->  line number 10: '0         0         0' 
  -->  line number 12: '1' 
noptmax = 0, resetting max_run_fail = 1
parameter warning: 1 parameters are at lower bound
parameter warning: 7 parameters are at upper bound

    This software has been approved for release by the
    U.S.Geological Survey(USGS).Although the software has 
    been subjected to rigorous review, the USGS reserves the
    right to update the software as needed pursuant to further
    analysisand review.No warranty, expressed or implied, is 
    made by the USGS or the U.S.Government as to the
    functionality of the softwareand related material nor shall
    the fact of release constitute any such warranty.
    Furthermore, the software is released on condition that
    neither the USGS nor the U.S.Government shall be held
    liable for any damages resulting from its authorized 
    or unauthorized use.


pestmode:- 
   estimation


Case dimensions:- 
    Number of parameters = 412
    Number of adjustable parameters = 323
    Number of observations = 212
    Number of prior estimates = 0

PEST Control Information
    relparmax = 10
    facparmax = 10
    facorig = 0.001
    phiredswh = 0.1
    noptmax = 0
    phiredstp = 0.01
    nphistp = 3
    nphinored = 3
    relparstp = 0.01
    nrelpar = 3


    PEST++ OPTIONS: 

...general options (used in multiple tools): 
svd_pack: redsvd
lambda_scale_fac: 0.75,1,1.1,
forgive_unknown_args: 0
max_run_fail: 1
yamr_poll_interval: 1
parameter_covariance: 
observation_covariance: 
hotstart_resfile: 
overdue_resched_fac: 1.15
overdue_giveup_fac: 100
overdue_giveup_minutes: 1e+30
condor_submit_file: 
tie_by_group: 0
par_sigma_range: 4
enforce_tied_bounds: 0
debug_parse_only: 0
check_tplins: 1
fill_tpl_zeros: 0
additional_ins_delimiters: ,
random_seed: 358183147
num_tpl_ins_threads: 1
save_binary: 0
ensemble_output_precision: 6
panther_echo: 1
panther_agent_restart_on_error: 0
panther_agent_no_ping_timeout_secs: -1
panther_debug_loop: 0
debug_check_par_en_consistency: 0
panther_agent_freeze_on_fail: 0
panther_transfer_on_finish: 
panther_transfer_on_fail: 

...pestpp-glm specific options:
max_n_super: 1000000
super_eigthresh: 1e-06
n_iter_base: 1000000
n_iter_super: 0
super_relparmax: 0.1
max_super_frz_iter: 20
max_reg_iter: 20
lambdas: 0.1,1,10,100,1000,
iteration_summary: 1
der_forgive: 1
uncertainty: 1
forecasts: 
base_jacobian: 
glm_num_reals: 0
jac_scale: 1
glm_normal_form: DIAG
glm_debug_der_fail: 0
glm_debug_lamb_fail: 0
glm_debug_real_fail: 0
glm_accept_mc_phi: 0
glm_rebase_super: 0
glm_iter_mc: 0

...pestpp-swp options:
sweep_parameter_csv_file: 
sweep_output_csv_file: sweep_out.csv
sweep_chunk: 500
sweep_forgive: 0
sweep_base_run: 0

...pestpp-opt options:
opt_objective_function: 
opt_coin_log: 1
opt_skip_final: 0
opt_std_weights: 0
opt_stack_size: 0
opt_par_stack: 
opt_obs_stack: 
opt_decision_variable_groups: 
opt_external_variable_groups: 
opt_constraint_groups: 
opt_risk: 0.5
opt_iter_derinc_fac: 1
opt_direction: 1
opt_iter_tol: 0.001
opt_recalc_fosm_every: 1
opt_chance_points: SINGLE

...pestpp-sqp options:
sqp_dv_en: 
sqp_obs_restart_en: 
sqp_num_reals: -1
sqp_update_hessian: 0
sqp_scale_facs:
  1e-05
  0.0001
  0.01
  0.1
  1

...pestpp-mou options:
mou_generator: DE
mou_population_size: 100
mou_dv_population_file: 
mou_obs_population_restart_file: 
mou_objectives: 
mou_max_archive_size: 500
mou_risk_objective: 0
mou_verbose_level: 1
mou_env_selector: NSGA
mou_mating_selector: TOURNAMENT
mou_crossover_prob: 0.75
mou_mutation_prob: -999
mou_de_f: 0.8
mou_save_population_every: -1
mou_pso_omega: 0.7
mou_pso_social_const: 2
mou_pso_cognitive: 2
mou_population_schedule: 
mou_simplex_reflections:10
mou_simplex_factors: 
 0.5
 0.6
 0.7
 0.8

...shared pestpp-ies/pestpp-da options:
(note: 'da' args override 'ies' args when using pestpp-da)
ies_parameter_ensemble: 
ies_observation_ensemble: 
ies_weights_ensemble: 
ies_restart_parameter_ensemble: 
ies_restart_observation_ensemble: 
ies_use_approximate_solution: 1
ies_lambda_mults: 0.1,1,10,
ies_initial_lambda: 0
ies_use_approx: 1
ies_subset_size: 4
ies_reg_factor: 0
ies_verbose_level: 0
ies_use_prior_scaling: 0
ies_num_reals: 50
ies_bad_phi: 1e+300
ies_bad_phi_sigma: 1e+300
ies_include_base: 1
ies_use_empirical_prior: 0
ies_group_draws: 0
ies_enforce_bounds: 1
ies_localizer: 
ies_accept_phi_fac: 1.05
ies_lambda_inc_fac: 10
ies_lambda_dec_fac: 0.75
ies_save_lambda_ensembles: 0
ies_subset_how: RANDOM
ies_localize_how: PARAMETERS
ies_num_threads: -1
ies_debug_fail_subset: 0
ies_debug_fail_remainder: 0
ies_debug_bad_phi: 0
ies_debug_upgrade_only: 0
ies_debug_high_subset_phi: 0
ies_debug_high_upgrade_phi: 0
ies_csv_by_reals: 1
ies_autoadaloc: 0
ies_autoadaloc_sigma_dist: 1
ies_enforce_chglim: 0
ies_center_on: 
ies_no_noise: 0
ies_drop_conflicts: 0
ies_save_rescov:0
ies_pdc_sigma_distance: -1
ies_use_mda: 0
ies_mda_init_fac: 10
ies_mda_dec_fac: 0.5
ies_localization_type: LOCAL
ies_upgrades_in_memory: 1
ies_ordered_binary: 1
ies_multimodal_alpha: 1

pestpp-sen options: 
gsa_method: MORRIS
gsa_morris_pooled_obs: 0
gsa_morris_obs_sen: 1
gsa_morris_p: 4
gsa_morris_r: 4
gsa_morris_delta: 0.6666
gsa_sobol_samples: 4
gsa_sobol_par_dist: norm
pestpp-da options (those not shared with pestpp-ies):
da_parameter_cycle_table: 
da_observation_cycle_table: 
da_hotstart_cycle: 0
da_stop_cycle: 1000000000
da_use_simulated_states: 1



Model command line(s):- 
    run_model.bat

Model interface files:-
    template files:
      tplfile.tpl
    model input files:
      input_param.csv

    instruction files:
      insfile.ins
    model output files:
      model_output.csv


Parameter group information
NAME             INCREMENT TYPE     DERIVATIVE INCREMENT    INCREMENT LOWER BOUND  FORCE CENTRAL     INCREMENT MULTIPLIER
upw_ks                 RELATIVE                     0.03                        0         SWITCH                        2
uzf_surfk              RELATIVE                     0.03                        0         SWITCH                        2
uzf_vks                RELATIVE                     0.03                        0         SWITCH                        2
uzf_finf               RELATIVE                     0.03                        0         SWITCH                        2
sfr_ks                 RELATIVE                     0.03                        0         SWITCH                        2
upw_vka                RELATIVE                     0.03                        0         SWITCH                        2
sfr_spil               RELATIVE                     0.03                        0         SWITCH                        2
lak_cd                 RELATIVE                     0.03                        0         SWITCH                        2
well_rubber_dam        RELATIVE                     0.03                        0         SWITCH                        2
uzf_pet                RELATIVE                     0.03                        0         SWITCH                        2



Parameter information
NAME          TRANSFORMATION        CHANGE LIMIT  INITIAL VALUE    LOWER BOUND    UPPER BOUND           GROUP          SCALE         OFFSET  DERIVATIVE COMMAND
finf_1        fixed                   FACTOR       0.483035           0.01              1        uzf_finf              1              0                   1
finf_10       fixed                   FACTOR       0.472505           0.01              1        uzf_finf              1              0                   1
finf_11       fixed                   FACTOR       0.472505           0.01              1        uzf_finf              1              0                   1
finf_12       fixed                   FACTOR       0.472505           0.01              1        uzf_finf              1              0                   1
finf_13       fixed                   FACTOR       0.472505           0.01              1        uzf_finf              1              0                   1
finf_14       fixed                   FACTOR       0.483035           0.01              1        uzf_finf              1              0                   1
finf_15       fixed                   FACTOR       0.483035           0.01              1        uzf_finf              1              0                   1
finf_16       fixed                   FACTOR       0.483035           0.01              1        uzf_finf              1              0                   1
finf_17       fixed                   FACTOR       0.483035           0.01              1        uzf_finf              1              0                   1
finf_18       fixed                   FACTOR       0.483035           0.01              1        uzf_finf              1              0                   1
finf_19       fixed                   FACTOR       0.483035           0.01              1        uzf_finf              1              0                   1
finf_2        fixed                   FACTOR       0.483035           0.01              1        uzf_finf              1              0                   1
finf_20       fixed                   FACTOR       0.528462           0.01              1        uzf_finf              1              0                   1
finf_21       fixed                   FACTOR       0.483035           0.01              1        uzf_finf              1              0                   1
finf_22       fixed                   FACTOR       0.483035           0.01              1        uzf_finf              1              0                   1
finf_3        fixed                   FACTOR       0.483035           0.01              1        uzf_finf              1              0                   1
finf_4        fixed                   FACTOR        0.41058           0.01              1        uzf_finf              1              0                   1
finf_5        fixed                   FACTOR        0.41058           0.01              1        uzf_finf              1              0                   1
finf_6        fixed                   FACTOR       0.483035           0.01              1        uzf_finf              1              0                   1
finf_7        fixed                   FACTOR       0.472505           0.01              1        uzf_finf              1              0                   1
finf_8        fixed                   FACTOR       0.472505           0.01              1        uzf_finf              1              0                   1
finf_9        fixed                   FACTOR       0.472505           0.01              1        uzf_finf              1              0                   1
ks_1          log                     FACTOR        2.39656          1e-05            500          upw_ks              1              0                   1
ks_10         log                     FACTOR        1.98134          1e-05            500          upw_ks              1              0                   1
ks_100        log                     FACTOR    0.000329541          1e-06            500          upw_ks              1              0                   1
ks_101        log                     FACTOR    0.000973323          1e-05            500          upw_ks              1              0                   1
ks_102        log                     FACTOR    0.000110582          1e-06            500          upw_ks              1              0                   1
ks_103        log                     FACTOR    0.000498324          1e-05            500          upw_ks              1              0                   1
ks_104        log                     FACTOR       1.63e-05          1e-06            500          upw_ks              1              0                   1
ks_105        log                     FACTOR       3.18e-05          1e-06            500          upw_ks              1              0                   1
ks_106        log                     FACTOR    0.000337738          1e-05            500          upw_ks              1              0                   1
ks_107        log                     FACTOR    0.000371699          1e-05            500          upw_ks              1              0                   1
ks_108        log                     FACTOR        4.44325          1e-05            500          upw_ks              1              0                   1
ks_109        log                     FACTOR        7.13257          1e-05            500          upw_ks              1              0                   1
ks_11         log                     FACTOR       0.973323          1e-05            500          upw_ks              1              0                   1
ks_110        log                     FACTOR        3.03158          1e-05            500          upw_ks              1              0                   1
ks_111        log                     FACTOR         6.9687          1e-05            500          upw_ks              1              0                   1
ks_112        log                     FACTOR        3.74646          1e-05            500          upw_ks              1              0                   1
ks_113        log                     FACTOR      0.0324518          1e-05            500          upw_ks              1              0                   1
ks_114        log                     FACTOR        7.93648          1e-05            500          upw_ks              1              0                   1
ks_115        log                     FACTOR        7.32053          1e-05            500          upw_ks              1              0                   1
ks_116        log                     FACTOR       0.364898          1e-05            500          upw_ks              1              0                   1
ks_117        log                     FACTOR        13.2965          1e-05            500          upw_ks              1              0                   1
ks_118        log                     FACTOR        1.90298          1e-05            500          upw_ks              1              0                   1
ks_119        log                     FACTOR          10.58          1e-05            500          upw_ks              1              0                   1
ks_12         log                     FACTOR        9.16782          1e-05            500          upw_ks              1              0                   1
ks_120        log                     FACTOR      0.0898582          1e-05            500          upw_ks              1              0                   1
ks_121        log                     FACTOR        2.23278          1e-05            500          upw_ks              1              0                   1
ks_122        log                     FACTOR         184.71          1e-05            500          upw_ks              1              0                   1
ks_123        log                     FACTOR        5.99361          1e-05            500          upw_ks              1              0                   1
ks_124        log                     FACTOR        2.13333          1e-05            500          upw_ks              1              0                   1
ks_125        log                     FACTOR        78.4203          1e-05            500          upw_ks              1              0                   1
ks_126        log                     FACTOR            500          1e-05            500          upw_ks              1              0                   1
ks_127        log                     FACTOR       0.808128          1e-05            500          upw_ks              1              0                   1
ks_128        log                     FACTOR        5.80634          1e-05            500          upw_ks              1              0                   1
ks_129        log                     FACTOR        4.78966          1e-05            500          upw_ks              1              0                   1
ks_13         log                     FACTOR        1.00605          1e-05            500          upw_ks              1              0                   1
ks_130        log                     FACTOR        3.47787          1e-05            500          upw_ks              1              0                   1
ks_131        log                     FACTOR    0.000443703          1e-05            500          upw_ks              1              0                   1
ks_132        log                     FACTOR    0.000560426          1e-05            500          upw_ks              1              0                   1
ks_133        log                     FACTOR    0.000353489          1e-05            500          upw_ks              1              0                   1
ks_134        log                     FACTOR      0.0268247          1e-05            500          upw_ks              1              0                   1
ks_135        log                     FACTOR    0.000180684          1e-05            500          upw_ks              1              0                   1
ks_136        log                     FACTOR    0.000367001          1e-05            500          upw_ks              1              0                   1
ks_137        log                     FACTOR      0.0105304          1e-05            500          upw_ks              1              0                   1
ks_138        log                     FACTOR        6.99827          1e-05            500          upw_ks              1              0                   1
ks_139        log                     FACTOR    0.000265775          1e-05            500          upw_ks              1              0                   1
ks_14         log                     FACTOR        4.26143          1e-05            500          upw_ks              1              0                   1
ks_140        log                     FACTOR        15.7564          1e-05            500          upw_ks              1              0                   1
ks_141        log                     FACTOR     0.00030438          1e-05            500          upw_ks              1              0                   1
ks_142        log                     FACTOR    0.000217803          1e-05            500          upw_ks              1              0                   1
ks_143        log                     FACTOR     0.00894744          1e-05            500          upw_ks              1              0                   1
ks_144        log                     FACTOR        1.05717          1e-05            500          upw_ks              1              0                   1
ks_145        log                     FACTOR         29.076          1e-05            500          upw_ks              1              0                   1
ks_146        log                     FACTOR        5.86241          1e-05            500          upw_ks              1              0                   1
ks_147        log                     FACTOR        2.31791          1e-05            500          upw_ks              1              0                   1
ks_148        log                     FACTOR        6.09816          1e-05            500          upw_ks              1              0                   1
ks_149        log                     FACTOR    0.000505604          1e-05            500          upw_ks              1              0                   1
ks_15         log                     FACTOR       0.699735          1e-05            500          upw_ks              1              0                   1
ks_150        log                     FACTOR        7.14396          1e-05            500          upw_ks              1              0                   1
ks_151        log                     FACTOR        6.31644          1e-05            500          upw_ks              1              0                   1
ks_152        log                     FACTOR       0.152644          1e-05            500          upw_ks              1              0                   1
ks_153        log                     FACTOR        90.2152          1e-05            500          upw_ks              1              0                   1
ks_154        log                     FACTOR        27.4917          1e-05            500          upw_ks              1              0                   1
ks_155        log                     FACTOR    0.000258327          1e-05            500          upw_ks              1              0                   1
ks_156        log                     FACTOR       0.194586          1e-05            500          upw_ks              1              0                   1
ks_157        log                     FACTOR       0.160083          1e-05            500          upw_ks              1              0                   1
ks_158        log                     FACTOR       0.685684          1e-05            500          upw_ks              1              0                   1
ks_159        log                     FACTOR      0.0258405          1e-05            500          upw_ks              1              0                   1
ks_16         log                     FACTOR         295.07          1e-05            500          upw_ks              1              0                   1
ks_160        log                     FACTOR        2.22201          1e-05            500          upw_ks              1              0                   1
ks_161        log                     FACTOR            500          1e-05            500          upw_ks              1              0                   1
ks_162        log                     FACTOR       0.219754          1e-05            500          upw_ks              1              0                   1
ks_163        log                     FACTOR      0.0672048          1e-05            500          upw_ks              1              0                   1
ks_164        log                     FACTOR      0.0570898          1e-05            500          upw_ks              1              0                   1
ks_165        log                     FACTOR          8.855          1e-05            500          upw_ks              1              0                   1
ks_166        log                     FACTOR      0.0154178          1e-05            500          upw_ks              1              0                   1
ks_167        log                     FACTOR      0.0186341          1e-05            500          upw_ks              1              0                   1
ks_168        log                     FACTOR       0.052088          1e-05            500          upw_ks              1              0                   1
ks_169        log                     FACTOR    0.000316199          1e-05            500          upw_ks              1              0                   1
ks_17         log                     FACTOR        1.77815          1e-05            500          upw_ks              1              0                   1
ks_170        log                     FACTOR      0.0163414          1e-05            500          upw_ks              1              0                   1
ks_171        log                     FACTOR       0.421852          1e-05            500          upw_ks              1              0                   1
ks_172        log                     FACTOR      0.0208434          1e-05            500          upw_ks              1              0                   1
ks_173        log                     FACTOR       0.011935          1e-05            500          upw_ks              1              0                   1
ks_174        log                     FACTOR        5.97091          1e-05            500          upw_ks              1              0                   1
ks_175        log                     FACTOR        0.13318          1e-05            500          upw_ks              1              0                   1
ks_176        log                     FACTOR     0.00633071          1e-05            500          upw_ks              1              0                   1
ks_177        log                     FACTOR        1.14955          1e-05            500          upw_ks              1              0                   1
ks_178        log                     FACTOR    0.000223568          1e-05            500          upw_ks              1              0                   1
ks_179        log                     FACTOR       0.354427          1e-05            500          upw_ks              1              0                   1
ks_18         log                     FACTOR          2.161          1e-05            500          upw_ks              1              0                   1
ks_180        log                     FACTOR       2.23e-05          1e-06            500          upw_ks              1              0                   1
ks_181        log                     FACTOR      0.0153557          1e-05            500          upw_ks              1              0                   1
ks_182        log                     FACTOR        5.52898          1e-05            500          upw_ks              1              0                   1
ks_183        log                     FACTOR       0.971513          1e-05            500          upw_ks              1              0                   1
ks_184        log                     FACTOR    0.000495372          1e-05            500          upw_ks              1              0                   1
ks_185        log                     FACTOR     0.00011066          1e-06            500          upw_ks              1              0                   1
ks_186        log                     FACTOR    0.000111625          1e-06            500          upw_ks              1              0                   1
ks_187        log                     FACTOR    0.000669267          1e-05            500          upw_ks              1              0                   1
ks_188        log                     FACTOR    0.000419235          1e-05            500          upw_ks              1              0                   1
ks_189        log                     FACTOR    0.000130799          1e-05            500          upw_ks              1              0                   1
ks_19         log                     FACTOR        46.6977          1e-05            500          upw_ks              1              0                   1
ks_190        log                     FACTOR       9.48e-06          1e-06            500          upw_ks              1              0                   1
ks_191        log                     FACTOR    0.000134014          1e-05            500          upw_ks              1              0                   1
ks_192        log                     FACTOR    0.000165427          1e-05            500          upw_ks              1              0                   1
ks_193        log                     FACTOR      0.0053317          1e-05            500          upw_ks              1              0                   1
ks_194        log                     FACTOR       1.19e-05          1e-06            500          upw_ks              1              0                   1
ks_195        log                     FACTOR    0.000854811          1e-05            500          upw_ks              1              0                   1
ks_196        log                     FACTOR       9.89e-06          1e-06            500          upw_ks              1              0                   1
ks_197        log                     FACTOR       9.13e-05          1e-05            500          upw_ks              1              0                   1
ks_198        log                     FACTOR     0.00305977          1e-05            500          upw_ks              1              0                   1
ks_199        log                     FACTOR       1.49e-05          1e-06            500          upw_ks              1              0                   1
ks_2          log                     FACTOR      0.0141002          1e-05            500          upw_ks              1              0                   1
ks_20         log                     FACTOR       0.934871          1e-05            500          upw_ks              1              0                   1
ks_200        log                     FACTOR       1.07e-05          1e-06            500          upw_ks              1              0                   1
ks_201        log                     FACTOR       1.21e-05          1e-06            500          upw_ks              1              0                   1
ks_202        log                     FACTOR    0.000118636          1e-05            500          upw_ks              1              0                   1
ks_203        log                     FACTOR    0.000126489          1e-05            500          upw_ks              1              0                   1
ks_204        log                     FACTOR    0.000109999          1e-06            500          upw_ks              1              0                   1
ks_205        log                     FACTOR    0.000121757          1e-05            500          upw_ks              1              0                   1
ks_206        log                     FACTOR       1.07e-05          1e-06            500          upw_ks              1              0                   1
ks_207        log                     FACTOR     0.00015343          1e-05            500          upw_ks              1              0                   1
ks_208        log                     FACTOR       1.75e-05          1e-06            500          upw_ks              1              0                   1
ks_209        log                     FACTOR     0.00041799          1e-05            500          upw_ks              1              0                   1
ks_21         log                     FACTOR       0.976062          1e-05            500          upw_ks              1              0                   1
ks_210        log                     FACTOR    0.000109239          1e-06            500          upw_ks              1              0                   1
ks_211        log                     FACTOR    0.000102909          1e-06            500          upw_ks              1              0                   1
ks_212        log                     FACTOR       7.31e-05          1e-05            500          upw_ks              1              0                   1
ks_213        log                     FACTOR    0.000108161          1e-06            500          upw_ks              1              0                   1
ks_214        log                     FACTOR    0.000107965          1e-06            500          upw_ks              1              0                   1
ks_215        log                     FACTOR    0.000157725          1e-06            500          upw_ks              1              0                   1
ks_216        log                     FACTOR    0.000211051          1e-05            500          upw_ks              1              0                   1
ks_217        log                     FACTOR       3.16e-05          1e-06            500          upw_ks              1              0                   1
ks_218        log                     FACTOR       5.53e-05          1e-06            500          upw_ks              1              0                   1
ks_219        log                     FACTOR    0.000112334          1e-05            500          upw_ks              1              0                   1
ks_22         log                     FACTOR       0.688072          1e-05            500          upw_ks              1              0                   1
ks_220        log                     FACTOR    0.000121525          1e-06            500          upw_ks              1              0                   1
ks_221        log                     FACTOR    0.000324935          1e-05            500          upw_ks              1              0                   1
ks_222        log                     FACTOR    0.000176625          1e-05            500          upw_ks              1              0                   1
ks_223        log                     FACTOR    0.000139404          1e-05            500          upw_ks              1              0                   1
ks_224        log                     FACTOR    0.000108115          1e-06            500          upw_ks              1              0                   1
ks_225        log                     FACTOR       1.23e-05          1e-06            500          upw_ks              1              0                   1
ks_226        log                     FACTOR    0.000111901          1e-05            500          upw_ks              1              0                   1
ks_227        log                     FACTOR    0.000101834          1e-06            500          upw_ks              1              0                   1
ks_228        log                     FACTOR       4.49e-05          1e-06            500          upw_ks              1              0                   1
ks_229        log                     FACTOR    0.000767464          1e-05            500          upw_ks              1              0                   1
ks_23         log                     FACTOR        483.116          1e-05            500          upw_ks              1              0                   1
ks_230        log                     FACTOR       9.45e-06          1e-06            500          upw_ks              1              0                   1
ks_231        log                     FACTOR       8.02e-05          1e-06            500          upw_ks              1              0                   1
ks_232        log                     FACTOR    0.000533499          1e-05            500          upw_ks              1              0                   1
ks_233        log                     FACTOR       9.26e-05          1e-06            500          upw_ks              1              0                   1
ks_24         log                     FACTOR      0.0510924          1e-05            500          upw_ks              1              0                   1
ks_25         log                     FACTOR      0.0892334          1e-05            500          upw_ks              1              0                   1
ks_26         log                     FACTOR           5000          1e-05           5000          upw_ks              1              0                   1
ks_27         log                     FACTOR       0.125634          1e-05            500          upw_ks              1              0                   1
ks_28         log                     FACTOR       0.268459          1e-05            500          upw_ks              1              0                   1
ks_29         log                     FACTOR        2.17212          1e-05            500          upw_ks              1              0                   1
ks_3          log                     FACTOR       0.785669          1e-05            500          upw_ks              1              0                   1
ks_30         log                     FACTOR       1.06e-05          1e-06            500          upw_ks              1              0                   1
ks_31         log                     FACTOR        2.72989          1e-05            500          upw_ks              1              0                   1
ks_32         log                     FACTOR     0.00022549          1e-05            500          upw_ks              1              0                   1
ks_33         log                     FACTOR         0.1083          1e-05            500          upw_ks              1              0                   1
ks_34         log                     FACTOR        47.8435          1e-05            500          upw_ks              1              0                   1
ks_35         log                     FACTOR    0.000195286          1e-05            500          upw_ks              1              0                   1
ks_36         log                     FACTOR    0.000787427          1e-05            500          upw_ks              1              0                   1
ks_37         log                     FACTOR    0.000281876          1e-05            500          upw_ks              1              0                   1
ks_38         log                     FACTOR       0.050216          1e-05            500          upw_ks              1              0                   1
ks_39         log                     FACTOR    0.000226389          1e-05            500          upw_ks              1              0                   1
ks_4          log                     FACTOR         61.859          1e-05            500          upw_ks              1              0                   1
ks_40         log                     FACTOR        1.33033          1e-05            500          upw_ks              1              0                   1
ks_41         log                     FACTOR        1.34067          1e-05            500          upw_ks              1              0                   1
ks_42         log                     FACTOR        2.26395          1e-05            500          upw_ks              1              0                   1
ks_43         log                     FACTOR      0.0796965          1e-05            500          upw_ks              1              0                   1
ks_44         log                     FACTOR       0.289002          1e-05            500          upw_ks              1              0                   1
ks_45         log                     FACTOR        3.79695          1e-05            500          upw_ks              1              0                   1
ks_46         log                     FACTOR      0.0468207          1e-05            500          upw_ks              1              0                   1
ks_47         log                     FACTOR        6.70441          1e-05            500          upw_ks              1              0                   1
ks_48         log                     FACTOR        9.68129          1e-05            500          upw_ks              1              0                   1
ks_49         log                     FACTOR     0.00023655          1e-05            500          upw_ks              1              0                   1
ks_5          log                     FACTOR            500          1e-05            500          upw_ks              1              0                   1
ks_50         log                     FACTOR        4.38555          1e-05            500          upw_ks              1              0                   1
ks_51         log                     FACTOR       5.34e-05          1e-06            500          upw_ks              1              0                   1
ks_52         log                     FACTOR     0.00366927          1e-05            500          upw_ks              1              0                   1
ks_53         log                     FACTOR          4.972          1e-05            500          upw_ks              1              0                   1
ks_54         log                     FACTOR       0.017846          1e-05            500          upw_ks              1              0                   1
ks_55         log                     FACTOR         4.6006          1e-05            500          upw_ks              1              0                   1
ks_56         log                     FACTOR        72.3764          1e-05            500          upw_ks              1              0                   1
ks_57         log                     FACTOR        5.05328          1e-05            500          upw_ks              1              0                   1
ks_58         log                     FACTOR       0.340424          1e-05            500          upw_ks              1              0                   1
ks_59         log                     FACTOR      0.0976532          1e-05            500          upw_ks              1              0                   1
ks_6          log                     FACTOR        421.764          1e-05            500          upw_ks              1              0                   1
ks_60         log                     FACTOR        4.73673          1e-05            500          upw_ks              1              0                   1
ks_61         log                     FACTOR      0.0289985          1e-05            500          upw_ks              1              0                   1
ks_62         log                     FACTOR       0.173958          1e-05            500          upw_ks              1              0                   1
ks_63         log                     FACTOR        12.6991          1e-05            500          upw_ks              1              0                   1
ks_64         log                     FACTOR    0.000772298          1e-05            500          upw_ks              1              0                   1
ks_65         log                     FACTOR     0.00263745          1e-05            500          upw_ks              1              0                   1
ks_66         log                     FACTOR        5.22052          1e-05            500          upw_ks              1              0                   1
ks_67         log                     FACTOR        11.9277          1e-05            500          upw_ks              1              0                   1
ks_68         log                     FACTOR      0.0118442          1e-05            500          upw_ks              1              0                   1
ks_69         log                     FACTOR       0.758077          1e-05            500          upw_ks              1              0                   1
ks_7          log                     FACTOR       1.03e-05          1e-06            500          upw_ks              1              0                   1
ks_70         log                     FACTOR        3.85436          1e-05            500          upw_ks              1              0                   1
ks_71         log                     FACTOR       2.69e-05          1e-06            500          upw_ks              1              0                   1
ks_72         log                     FACTOR    0.000799284          1e-06            500          upw_ks              1              0                   1
ks_73         log                     FACTOR    0.000143931          1e-05            500          upw_ks              1              0                   1
ks_74         log                     FACTOR    0.000109545          1e-06            500          upw_ks              1              0                   1
ks_75         log                     FACTOR       1.28e-05          1e-06            500          upw_ks              1              0                   1
ks_76         log                     FACTOR    0.000255056          1e-05            500          upw_ks              1              0                   1
ks_77         log                     FACTOR     0.00011524          1e-05            500          upw_ks              1              0                   1
ks_78         log                     FACTOR       1.53e-05          1e-06            500          upw_ks              1              0                   1
ks_79         log                     FACTOR       1.28e-05          1e-06            500          upw_ks              1              0                   1
ks_8          log                     FACTOR       1.06e-05          1e-06            500          upw_ks              1              0                   1
ks_80         log                     FACTOR        449.597          1e-05            500          upw_ks              1              0                   1
ks_81         log                     FACTOR    0.000125341          1e-06            500          upw_ks              1              0                   1
ks_82         log                     FACTOR            500          1e-05            500          upw_ks              1              0                   1
ks_83         log                     FACTOR        6.75903          1e-05            500          upw_ks              1              0                   1
ks_84         log                     FACTOR    0.000146999          1e-06            500          upw_ks              1              0                   1
ks_85         log                     FACTOR          2e-05          1e-06            500          upw_ks              1              0                   1
ks_86         log                     FACTOR    0.000143903          1e-05            500          upw_ks              1              0                   1
ks_87         log                     FACTOR            500          1e-05            500          upw_ks              1              0                   1
ks_88         log                     FACTOR            500          1e-05            500          upw_ks              1              0                   1
ks_89         log                     FACTOR       9.46e-05          1e-05            500          upw_ks              1              0                   1
ks_9          log                     FACTOR        4.53893          1e-05            500          upw_ks              1              0                   1
ks_90         log                     FACTOR         5.3265          1e-05            500          upw_ks              1              0                   1
ks_91         log                     FACTOR        15.0169          1e-05            500          upw_ks              1              0                   1
ks_92         log                     FACTOR    0.000219468          1e-05            500          upw_ks              1              0                   1
ks_93         log                     FACTOR        54.3483          1e-05            500          upw_ks              1              0                   1
ks_94         log                     FACTOR       1.04e-05          1e-06            500          upw_ks              1              0                   1
ks_95         log                     FACTOR    0.000149376          1e-05            500          upw_ks              1              0                   1
ks_96         log                     FACTOR    0.000205538          1e-05            500          upw_ks              1              0                   1
ks_97         log                     FACTOR       2.59e-05          1e-06            500          upw_ks              1              0                   1
ks_98         log                     FACTOR    0.000146344          1e-05            500          upw_ks              1              0                   1
ks_99         log                     FACTOR    0.000120989          1e-05            500          upw_ks              1              0                   1
lak_cond_1    fixed                   FACTOR              1        1.1e-10        1.1e+10          lak_cd              1              0                   1
lak_cond_12   log                     FACTOR        1.06949            0.1          10000          lak_cd              1              0                   1
lak_cond_2    fixed                   FACTOR              1        1.1e-10        1.1e+10          lak_cd              1              0                   1
pet_1         fixed                   FACTOR        9.5e-05        1.1e-10        1.1e+10         uzf_pet              1              0                   1
pond_recharge log                     FACTOR        54801.6              1         100000 well_rubber_dam              1              0                   1
sfr_k_1       log                     FACTOR      0.0298174          1e-05            500          sfr_ks              1              0                   1
sfr_k_10      log                     FACTOR       0.114617          1e-05            500          sfr_ks              1              0                   1
sfr_k_11      log                     FACTOR       0.223738          1e-05            500          sfr_ks              1              0                   1
sfr_k_12      log                     FACTOR        1.15985          1e-05            500          sfr_ks              1              0                   1
sfr_k_13      log                     FACTOR       0.103104          1e-05            500          sfr_ks              1              0                   1
sfr_k_14      log                     FACTOR       0.147604          1e-05            500          sfr_ks              1              0                   1
sfr_k_15      log                     FACTOR        0.11475          1e-05            500          sfr_ks              1              0                   1
sfr_k_16      log                     FACTOR       0.378343          1e-05            500          sfr_ks              1              0                   1
sfr_k_17      log                     FACTOR       0.119665          1e-05            500          sfr_ks              1              0                   1
sfr_k_18      log                     FACTOR       0.337536          1e-05            500          sfr_ks              1              0                   1
sfr_k_19      log                     FACTOR       0.106312          1e-05            500          sfr_ks              1              0                   1
sfr_k_2       log                     FACTOR      0.0874777          1e-05            500          sfr_ks              1              0                   1
sfr_k_20      log                     FACTOR       0.101578          1e-05            500          sfr_ks              1              0                   1
sfr_k_21      log                     FACTOR       0.148823          1e-05            500          sfr_ks              1              0                   1
sfr_k_22      log                     FACTOR       0.119465          1e-05            500          sfr_ks              1              0                   1
sfr_k_3       log                     FACTOR      0.0891242          1e-05            500          sfr_ks              1              0                   1
sfr_k_4       log                     FACTOR      0.0272063          1e-05            500          sfr_ks              1              0                   1
sfr_k_5       log                     FACTOR       0.360588          1e-05            500          sfr_ks              1              0                   1
sfr_k_6       log                     FACTOR       0.927024          1e-05            500          sfr_ks              1              0                   1
sfr_k_7       log                     FACTOR       0.250899          1e-05            500          sfr_ks              1              0                   1
sfr_k_8       log                     FACTOR       0.317291          1e-05            500          sfr_ks              1              0                   1
sfr_k_9       log                     FACTOR       0.167186          1e-05            500          sfr_ks              1              0                   1
spill_447     fixed                   FACTOR            185            100            220        sfr_spil              1              0                   1
spill_449     fixed                   FACTOR            147            100            220        sfr_spil              1              0                   1
spill_688     none                    FACTOR           8.23           8.23           11.6        sfr_spil              1              0                   1
surfk_1_1     log                     FACTOR    0.000455031          1e-10            500       uzf_surfk              1              0                   1
surfk_1_10    log                     FACTOR    0.000442671          1e-10            500       uzf_surfk              1              0                   1
surfk_1_11    log                     FACTOR    0.000291113          1e-10            500       uzf_surfk              1              0                   1
surfk_1_12    log                     FACTOR    0.000294033          1e-10            500       uzf_surfk              1              0                   1
surfk_1_13    log                     FACTOR    0.000442773          1e-10            500       uzf_surfk              1              0                   1
surfk_1_14    log                     FACTOR    0.000287422          1e-10            500       uzf_surfk              1              0                   1
surfk_1_15    log                     FACTOR     0.00027234          1e-10            500       uzf_surfk              1              0                   1
surfk_1_16    log                     FACTOR     0.00032192          1e-10            500       uzf_surfk              1              0                   1
surfk_1_17    log                     FACTOR    0.000303693          1e-10            500       uzf_surfk              1              0                   1
surfk_1_18    log                     FACTOR     0.00078506          1e-10            500       uzf_surfk              1              0                   1
surfk_1_19    log                     FACTOR    0.000294802          1e-10            500       uzf_surfk              1              0                   1
surfk_1_2     log                     FACTOR    0.000435775          1e-10            500       uzf_surfk              1              0                   1
surfk_1_21    log                     FACTOR    0.000354602          1e-10            500       uzf_surfk              1              0                   1
surfk_1_3     log                     FACTOR    0.000294262          1e-10            500       uzf_surfk              1              0                   1
surfk_1_4     log                     FACTOR    0.000556299          1e-10            500       uzf_surfk              1              0                   1
surfk_1_5     log                     FACTOR    0.000893942          1e-10            500       uzf_surfk              1              0                   1
surfk_1_6     log                     FACTOR    0.000310139          1e-10            500       uzf_surfk              1              0                   1
surfk_1_8     log                     FACTOR    0.000680417          1e-10            500       uzf_surfk              1              0                   1
surfk_1_9     log                     FACTOR     0.00267004          1e-10            500       uzf_surfk              1              0                   1
surfk_2_1     log                     FACTOR    0.000555308          1e-10            500       uzf_surfk              1              0                   1
surfk_2_10    log                     FACTOR    0.000292019          1e-10            500       uzf_surfk              1              0                   1
surfk_2_11    log                     FACTOR    0.000430923          1e-10            500       uzf_surfk              1              0                   1
surfk_2_12    log                     FACTOR    0.000306871          1e-10            500       uzf_surfk              1              0                   1
surfk_2_14    log                     FACTOR    0.000235789          1e-10            500       uzf_surfk              1              0                   1
surfk_2_15    log                     FACTOR    0.000284608          1e-10            500       uzf_surfk              1              0                   1
surfk_2_16    log                     FACTOR    0.000163057          1e-10            500       uzf_surfk              1              0                   1
surfk_2_17    log                     FACTOR    0.000177994          1e-10            500       uzf_surfk              1              0                   1
surfk_2_18    log                     FACTOR    0.000253183          1e-10            500       uzf_surfk              1              0                   1
surfk_2_19    log                     FACTOR    0.000195166          1e-10            500       uzf_surfk              1              0                   1
surfk_2_2     log                     FACTOR    0.000126965          1e-10            500       uzf_surfk              1              0                   1
surfk_2_20    log                     FACTOR    0.000877021          1e-10            500       uzf_surfk              1              0                   1
surfk_2_21    log                     FACTOR    0.000232231          1e-10            500       uzf_surfk              1              0                   1
surfk_2_22    log                     FACTOR    0.000177071          1e-10            500       uzf_surfk              1              0                   1
surfk_2_3     log                     FACTOR    0.000158028          1e-10            500       uzf_surfk              1              0                   1
surfk_2_4     log                     FACTOR    0.000309358          1e-10            500       uzf_surfk              1              0                   1
surfk_2_5     log                     FACTOR    0.000358916          1e-10            500       uzf_surfk              1              0                   1
surfk_2_6     log                     FACTOR    0.000274701          1e-10            500       uzf_surfk              1              0                   1
surfk_2_7     log                     FACTOR    0.000318675          1e-10            500       uzf_surfk              1              0                   1
surfk_2_8     log                     FACTOR    0.000338699          1e-10            500       uzf_surfk              1              0                   1
surfk_2_9     log                     FACTOR    0.000326702          1e-10            500       uzf_surfk              1              0                   1
surfk_3_1     log                     FACTOR       3.04e-08          1e-10            500       uzf_surfk              1              0                   1
surfk_3_10    log                     FACTOR        3.2e-08          1e-10            500       uzf_surfk              1              0                   1
surfk_3_11    log                     FACTOR       3.07e-08          1e-10            500       uzf_surfk              1              0                   1
surfk_3_12    log                     FACTOR       3.31e-08          1e-10            500       uzf_surfk              1              0                   1
surfk_3_13    log                     FACTOR       3.38e-08          1e-10            500       uzf_surfk              1              0                   1
surfk_3_14    log                     FACTOR       3.31e-08          1e-10            500       uzf_surfk              1              0                   1
surfk_3_15    log                     FACTOR        3.2e-08          1e-10            500       uzf_surfk              1              0                   1
surfk_3_16    log                     FACTOR       1.15e-07          1e-10            500       uzf_surfk              1              0                   1
surfk_3_17    log                     FACTOR        3.4e-08          1e-10            500       uzf_surfk              1              0                   1
surfk_3_18    log                     FACTOR       2.93e-08          1e-10            500       uzf_surfk              1              0                   1
surfk_3_19    log                     FACTOR       3.78e-08          1e-10            500       uzf_surfk              1              0                   1
surfk_3_2     log                     FACTOR       3.36e-08          1e-10            500       uzf_surfk              1              0                   1
surfk_3_20    log                     FACTOR       1.17e-07          1e-10            500       uzf_surfk              1              0                   1
surfk_3_21    log                     FACTOR       3.08e-08          1e-10            500       uzf_surfk              1              0                   1
surfk_3_22    log                     FACTOR       2.52e-08          1e-10            500       uzf_surfk              1              0                   1
surfk_3_3     log                     FACTOR       3.31e-08          1e-10            500       uzf_surfk              1              0                   1
surfk_3_4     log                     FACTOR       3.36e-08          1e-10            500       uzf_surfk              1              0                   1
surfk_3_5     log                     FACTOR        4.8e-08          1e-10            500       uzf_surfk              1              0                   1
surfk_3_6     log                     FACTOR       1.22e-07          1e-10            500       uzf_surfk              1              0                   1
surfk_3_7     log                     FACTOR       3.73e-08          1e-10            500       uzf_surfk              1              0                   1
surfk_3_8     log                     FACTOR       3.27e-08          1e-10            500       uzf_surfk              1              0                   1
surfk_3_9     log                     FACTOR       3.31e-08          1e-10            500       uzf_surfk              1              0                   1
vka_ratio_1   none                    FACTOR        0.02919        1.1e-10        1.1e+10         upw_vka              1              0                   1
vka_ratio_2   none                    FACTOR       0.375119        1.1e-10        1.1e+10         upw_vka              1              0                   1
vka_ratio_3   none                    FACTOR     0.00518007        1.1e-10        1.1e+10         upw_vka              1              0                   1
vks_1_1       fixed                   FACTOR       0.000251          1e-10            500         uzf_vks              1              0                   1
vks_1_10      fixed                   FACTOR       0.000251          1e-10            500         uzf_vks              1              0                   1
vks_1_11      fixed                   FACTOR       0.000251          1e-10            500         uzf_vks              1              0                   1
vks_1_12      fixed                   FACTOR       0.000251          1e-10            500         uzf_vks              1              0                   1
vks_1_13      fixed                   FACTOR       0.000251          1e-10            500         uzf_vks              1              0                   1
vks_1_14      fixed                   FACTOR       0.000251          1e-10            500         uzf_vks              1              0                   1
vks_1_15      fixed                   FACTOR       0.000251          1e-10            500         uzf_vks              1              0                   1
vks_1_16      fixed                   FACTOR       0.000251          1e-10            500         uzf_vks              1              0                   1
vks_1_17      fixed                   FACTOR       0.000251          1e-10            500         uzf_vks              1              0                   1
vks_1_18      fixed                   FACTOR       0.000251          1e-10            500         uzf_vks              1              0                   1
vks_1_19      fixed                   FACTOR       0.000251          1e-10            500         uzf_vks              1              0                   1
vks_1_2       fixed                   FACTOR       0.000251          1e-10            500         uzf_vks              1              0                   1
vks_1_21      fixed                   FACTOR       0.000251          1e-10            500         uzf_vks              1              0                   1
vks_1_3       fixed                   FACTOR       0.000251          1e-10            500         uzf_vks              1              0                   1
vks_1_4       fixed                   FACTOR       0.000398          1e-10            500         uzf_vks              1              0                   1
vks_1_5       fixed                   FACTOR       0.000398          1e-10            500         uzf_vks              1              0                   1
vks_1_6       fixed                   FACTOR       0.000251          1e-10            500         uzf_vks              1              0                   1
vks_1_8       fixed                   FACTOR       0.000251          1e-10            500         uzf_vks              1              0                   1
vks_1_9       fixed                   FACTOR       0.000251          1e-10            500         uzf_vks              1              0                   1
vks_2_1       fixed                   FACTOR       0.000251          1e-10            500         uzf_vks              1              0                   1
vks_2_10      fixed                   FACTOR       0.000251          1e-10            500         uzf_vks              1              0                   1
vks_2_11      fixed                   FACTOR       0.000251          1e-10            500         uzf_vks              1              0                   1
vks_2_12      fixed                   FACTOR       0.000251          1e-10            500         uzf_vks              1              0                   1
vks_2_14      fixed                   FACTOR       0.000158          1e-10            500         uzf_vks              1              0                   1
vks_2_15      fixed                   FACTOR       0.000158          1e-10            500         uzf_vks              1              0                   1
vks_2_16      fixed                   FACTOR       0.000158          1e-10            500         uzf_vks              1              0                   1
vks_2_17      fixed                   FACTOR       0.000158          1e-10            500         uzf_vks              1              0                   1
vks_2_18      fixed                   FACTOR       0.000158          1e-10            500         uzf_vks              1              0                   1
vks_2_19      fixed                   FACTOR       0.000158          1e-10            500         uzf_vks              1              0                   1
vks_2_2       fixed                   FACTOR         0.0001          1e-10            500         uzf_vks              1              0                   1
vks_2_20      fixed                   FACTOR       0.000631          1e-10            500         uzf_vks              1              0                   1
vks_2_21      fixed                   FACTOR       0.000158          1e-10            500         uzf_vks              1              0                   1
vks_2_22      fixed                   FACTOR       0.000158          1e-10            500         uzf_vks              1              0                   1
vks_2_3       fixed                   FACTOR         0.0001          1e-10            500         uzf_vks              1              0                   1
vks_2_4       fixed                   FACTOR       0.000251          1e-10            500         uzf_vks              1              0                   1
vks_2_5       fixed                   FACTOR       0.000251          1e-10            500         uzf_vks              1              0                   1
vks_2_6       fixed                   FACTOR       0.000158          1e-10            500         uzf_vks              1              0                   1
vks_2_7       fixed                   FACTOR       0.000251          1e-10            500         uzf_vks              1              0                   1
vks_2_8       fixed                   FACTOR       0.000251          1e-10            500         uzf_vks              1              0                   1
vks_2_9       fixed                   FACTOR       0.000251          1e-10            500         uzf_vks              1              0                   1
vks_3_1       fixed                   FACTOR       3.02e-08          1e-10            500         uzf_vks              1              0                   1
vks_3_10      fixed                   FACTOR       3.09e-08          1e-10            500         uzf_vks              1              0                   1
vks_3_11      fixed                   FACTOR       3.09e-08          1e-10            500         uzf_vks              1              0                   1
vks_3_12      fixed                   FACTOR       3.09e-08          1e-10            500         uzf_vks              1              0                   1
vks_3_13      fixed                   FACTOR       3.09e-08          1e-10            500         uzf_vks              1              0                   1
vks_3_14      fixed                   FACTOR       3.09e-08          1e-10            500         uzf_vks              1              0                   1
vks_3_15      fixed                   FACTOR       3.09e-08          1e-10            500         uzf_vks              1              0                   1
vks_3_16      fixed                   FACTOR          1e-07          1e-10            500         uzf_vks              1              0                   1
vks_3_17      fixed                   FACTOR       3.09e-08          1e-10            500         uzf_vks              1              0                   1
vks_3_18      fixed                   FACTOR       3.09e-08          1e-10            500         uzf_vks              1              0                   1
vks_3_19      fixed                   FACTOR       3.09e-08          1e-10            500         uzf_vks              1              0                   1
vks_3_2       fixed                   FACTOR       3.09e-08          1e-10            500         uzf_vks              1              0                   1
vks_3_20      fixed                   FACTOR       1.15e-07          1e-10            500         uzf_vks              1              0                   1
vks_3_21      fixed                   FACTOR       3.09e-08          1e-10            500         uzf_vks              1              0                   1
vks_3_22      fixed                   FACTOR       3.09e-08          1e-10            500         uzf_vks              1              0                   1
vks_3_3       fixed                   FACTOR       3.09e-08          1e-10            500         uzf_vks              1              0                   1
vks_3_4       fixed                   FACTOR       3.09e-08          1e-10            500         uzf_vks              1              0                   1
vks_3_5       fixed                   FACTOR       3.09e-08          1e-10            500         uzf_vks              1              0                   1
vks_3_6       fixed                   FACTOR          1e-07          1e-10            500         uzf_vks              1              0                   1
vks_3_7       fixed                   FACTOR       3.09e-08          1e-10            500         uzf_vks              1              0                   1
vks_3_8       fixed                   FACTOR       3.09e-08          1e-10            500         uzf_vks              1              0                   1
vks_3_9       fixed                   FACTOR       3.09e-08          1e-10            500         uzf_vks              1              0                   1



Observation information
NAME                                VALUE                GROUP              WEIGHT
bsflo_1                             0.114               basflo             47.3879
bsflo_10                             -999               basflo                   0
bsflo_11                             -999               basflo                   0
bsflo_12                             -999               basflo                   0
bsflo_13                            0.114               basflo             47.3879
bsflo_14                             -999               basflo                   0
bsflo_15                             -999               basflo                   0
bsflo_16                            0.114               basflo             47.3879
bsflo_17                             -999               basflo                   0
bsflo_18                            0.114               basflo             47.3879
bsflo_19                             -999               basflo                   0
bsflo_2                             0.114               basflo             47.3879
bsflo_20                             -999               basflo                   0
bsflo_3                              -999               basflo                   0
bsflo_4                              -999               basflo                   0
bsflo_5                             0.114               basflo             47.3879
bsflo_6                             0.114               basflo             47.3879
bsflo_7                              -999               basflo                   0
bsflo_8                              -999               basflo                   0
bsflo_9                              -999               basflo                   0
gflo_1                             395596                ggflo                   0
gflo_10                            268818                ggflo                   0
gflo_11                            2347.1                ggflo                   0
gflo_12                            272439                ggflo                   0
gflo_13                       3.12006e+06                ggflo                   0
gflo_14                            715847                ggflo                   0
gflo_15                            270012                ggflo                   0
gflo_16                            192046                ggflo                   0
gflo_17                            709278                ggflo                   0
gflo_18                       4.89947e+06                ggflo                   0
gflo_19                              -999                ggflo                   0
gflo_2                             634757                ggflo                   0
gflo_20                            375102                ggflo                   0
gflo_3                             673223                ggflo                   0
gflo_4                             883062                ggflo                   0
gflo_5                        1.49115e+06                ggflo                   0
gflo_6                        2.02711e+06                ggflo                   0
gflo_7                             103461                ggflo                   0
gflo_8                            69467.9                ggflo                   0
gflo_9                             256582                ggflo                   0
ho_0                              68.2503                heads                   1
ho_1                               314.63                heads                   1
ho_10                              48.455                heads                   1
ho_100                            190.365                heads                   1
ho_101                            158.747                heads                   1
ho_102                            160.161                heads                   1
ho_103                            175.496                heads                   1
ho_104                            170.152                heads                   1
ho_105                            168.534                heads                   1
ho_106                             166.46                heads                   1
ho_107                            170.016                heads                   1
ho_108                            170.801                heads                   1
ho_109                            171.834                heads                   1
ho_11                             40.0979                heads                   1
ho_110                            170.791                heads                   1
ho_111                            170.698                heads                   1
ho_112                            171.367                heads                   1
ho_113                            168.687                heads                   1
ho_114                            171.771                heads                   1
ho_115                            245.527                heads                   1
ho_116                            236.496                heads                   1
ho_117                             237.63                heads                   1
ho_118                            218.041                heads                   1
ho_119                            236.805                heads                   1
ho_12                             19.3256                heads                   1
ho_120                            250.561                heads                   1
ho_121                            231.944                heads                   1
ho_122                            311.561                heads                   1
ho_123                            229.146                heads                   1
ho_124                            257.824                heads                   1
ho_125                            275.661                heads                   1
ho_126                            234.976                heads                   1
ho_127                            228.281                heads                   1
ho_128                            183.661                heads                   1
ho_129                            239.099                heads                   1
ho_13                             12.3366                heads                   1
ho_130                            202.966                heads                   1
ho_131                            221.218                heads                   1
ho_132                            211.235                heads                   1
ho_133                            235.973                heads                   1
ho_134                             236.65                heads                   1
ho_135                            194.574                heads                   1
ho_136                            216.039                heads                   1
ho_137                            230.514                heads                   1
ho_138                            193.811                heads                   1
ho_139                            239.744                heads                   1
ho_14                             324.889                heads                   1
ho_140                            240.352                heads                   1
ho_141                            243.034                heads                   1
ho_142                            216.196                heads                   1
ho_143                            242.481                heads                   1
ho_144                            186.431                heads                   1
ho_145                            205.223                heads                   1
ho_146                            255.043                heads                   1
ho_147                            257.293                heads                   1
[...]
               ho_106        heads              166.460              169.520             -3.05953              1.00000
               ho_107        heads              170.016              169.433             0.583240              1.00000
               ho_108        heads              170.801              172.508             -1.70736              1.00000
               ho_109        heads              171.834              173.407             -1.57309              1.00000
                ho_11        heads              40.0979              45.6655             -5.56760              1.00000
               ho_110        heads              170.791              174.075             -3.28383              1.00000
               ho_111        heads              170.698              175.137             -4.43887              1.00000
               ho_112        heads              171.367              175.422             -4.05463              1.00000
               ho_113        heads              168.687              172.622             -3.93504              1.00000
               ho_114        heads              171.771              174.817             -3.04564              1.00000
               ho_115        heads              245.527              243.921              1.60586              1.00000
               ho_116        heads              236.496              240.174             -3.67806              1.00000
               ho_117        heads              237.630              239.504             -1.87351              1.00000
               ho_118        heads              218.041              227.807             -9.76635              1.00000
               ho_119        heads              236.805              235.526              1.27920              1.00000
                ho_12        heads              19.3256              26.5071             -7.18148              1.00000
               ho_120        heads              250.561              254.491             -3.92994              1.00000
               ho_121        heads              231.944              238.537             -6.59315              1.00000
               ho_122        heads              311.561              296.588              14.9722              1.00000
               ho_123        heads              229.146              291.141             -61.9957              1.00000
               ho_124        heads              257.824              268.849             -11.0249              1.00000
               ho_125        heads              275.661              275.742           -0.0809706              1.00000
               ho_126        heads              234.976              235.821            -0.845184              1.00000
               ho_127        heads              228.281              222.727              5.55371              1.00000
               ho_128        heads              183.661              203.982             -20.3214              1.00000
               ho_129        heads              239.099              243.918             -4.81843              1.00000
                ho_13        heads              12.3366              11.9562             0.380377              1.00000
               ho_130        heads              202.966              209.515             -6.54872              1.00000
               ho_131        heads              221.218              225.130             -3.91222              1.00000
               ho_132        heads              211.235              212.101            -0.865934              1.00000
               ho_133        heads              235.973              235.127             0.846598              1.00000
               ho_134        heads              236.650              234.618              2.03134              1.00000
               ho_135        heads              194.574              213.535             -18.9611              1.00000
               ho_136        heads              216.039              219.145             -3.10595              1.00000
               ho_137        heads              230.514              233.916             -3.40146              1.00000
               ho_138        heads              193.811              215.913             -22.1027              1.00000
               ho_139        heads              239.744              247.225             -7.48154              1.00000
                ho_14        heads              324.889              326.904             -2.01484              1.00000
               ho_140        heads              240.352              240.425           -0.0724605              1.00000
               ho_141        heads              243.034              244.039             -1.00534              1.00000
               ho_142        heads              216.196              244.212             -28.0153              1.00000
               ho_143        heads              242.481              244.991             -2.51033              1.00000
               ho_144        heads              186.431              227.238             -40.8065              1.00000
               ho_145        heads              205.223              219.446             -14.2223              1.00000
               ho_146        heads              255.043              254.750             0.292663              1.00000
               ho_147        heads              257.293              255.387              1.90603              1.00000
               ho_148        heads              225.667              218.858              6.80908              1.00000
               ho_149        heads              213.561              219.437             -5.87615              1.00000
                ho_15        heads              13.4950              21.1727             -7.67771              1.00000
               ho_150        heads              248.101              237.891              10.2098              1.00000
               ho_151        heads              252.737              238.875              13.8620              1.00000
               ho_152        heads              191.459              190.468             0.990947              1.00000
               ho_153        heads              185.046              183.851              1.19499              1.00000
               ho_154        heads              177.110              183.443             -6.33351              1.00000
               ho_155        heads              174.849              183.443             -8.59411              1.00000
               ho_156        heads              174.632              183.443             -8.81151              1.00000
               ho_157        heads              174.424              183.443             -9.01881              1.00000
               ho_158        heads              197.995              197.315             0.680481              1.00000
               ho_159        heads              183.859              197.315             -13.4560              1.00000
                ho_16        heads              62.0403              49.3508              12.6895              1.00000
               ho_160        heads              192.995              197.315             -4.32012              1.00000
               ho_161        heads              276.432              290.557             -14.1249              1.00000
               ho_162        heads              214.526              224.846             -10.3201              1.00000
               ho_163        heads              218.267              212.651              5.61593              1.00000
               ho_164        heads              197.411              212.869             -15.4580              1.00000
               ho_165        heads              228.934              232.848             -3.91458              1.00000
               ho_166        heads              228.378              221.381              6.99775              1.00000
               ho_167        heads              265.622              272.361             -6.73939              1.00000
               ho_168        heads              275.129              275.919            -0.790395              1.00000
               ho_169        heads              290.565              291.374            -0.809729              1.00000
                ho_17        heads              3.98280              8.30569             -4.32289              1.00000
               ho_170        heads              290.379              291.341            -0.962770              1.00000
                ho_18        heads              24.3950              41.7028             -17.3078              1.00000
                ho_19        heads              37.4358              40.8269             -3.39113              1.00000
                 ho_2        heads              83.3997              92.2311             -8.83142              1.00000
                ho_20        heads              18.1986              20.4430             -2.24437              1.00000
                ho_21        heads              39.1015              30.8037              8.29776              1.00000
                ho_22        heads              15.4875              23.3970             -7.90947              1.00000
                ho_23        heads              14.4814              13.9335             0.547879              1.00000
                ho_24        heads              12.5924              15.5469             -2.95447              1.00000
                ho_25        heads              11.5968              15.8336             -4.23678              1.00000
                ho_26        heads              10.7190              15.8787             -5.15972              1.00000
                ho_27        heads              11.2937              16.7141             -5.42039              1.00000
                ho_28        heads              18.4356              18.2934             0.142236              1.00000
                ho_29        heads              11.4599              17.4747             -6.01477              1.00000
                 ho_3        heads              26.7286              41.3545             -14.6259              1.00000
                ho_30        heads              21.2190              25.7907             -4.57173              1.00000
                ho_31        heads              17.6493              41.2052             -23.5559              1.00000
                ho_32        heads              10.0889              41.8067             -31.7178              1.00000
                ho_33        heads              31.2621              41.7133             -10.4512              1.00000
                ho_34        heads              47.2575              41.6067              5.65077              1.00000
                ho_35        heads              39.2465              41.7327             -2.48622              1.00000
                ho_36        heads             -1.40930              9.32510             -10.7344              1.00000
                ho_37        heads              10.1445              11.9363             -1.79175              1.00000
                ho_38        heads              130.681              127.323              3.35825              1.00000
                ho_39        heads              122.097              126.152             -4.05457              1.00000
                 ho_4        heads             -4.59190              1.37186             -5.96376              1.00000
                ho_40        heads              64.1488              63.0705              1.07834              1.00000
                ho_41        heads              58.4498              60.6357             -2.18588              1.00000
                ho_42        heads              93.1612              94.5180             -1.35682              1.00000
                ho_43        heads              41.6590              46.7596             -5.10059              1.00000
                ho_44        heads              66.6429              50.6440              15.9989              1.00000
                ho_45        heads              54.8153              51.4494              3.36594              1.00000
                ho_46        heads              91.1350              87.0057              4.12930              1.00000
                ho_47        heads              100.721              101.103            -0.381575              1.00000
                ho_48        heads              303.376              275.715              27.6609              1.00000
                ho_49        heads              49.4388              51.9382             -2.49938              1.00000
                 ho_5        heads             -11.0350              2.62347             -13.6585              1.00000
                ho_50        heads              61.6086              51.7108              9.89778              1.00000
                ho_51        heads              86.1749              80.6750              5.49990              1.00000
                ho_52        heads              85.2498              85.7584            -0.508608              1.00000
                ho_53        heads              82.7974              83.8335             -1.03608              1.00000
                ho_54        heads              55.9031              57.5317             -1.62863              1.00000
                ho_55        heads              75.2073              79.1338             -3.92650              1.00000
                ho_56        heads              47.1085              50.8320             -3.72347              1.00000
                ho_57        heads              49.3317              53.0177             -3.68598              1.00000
                ho_58        heads              39.6155              43.5639             -3.94838              1.00000
                ho_59        heads              42.3267              44.3717             -2.04503              1.00000
                 ho_6        heads              65.1355              61.3181              3.81742              1.00000
                ho_60        heads              48.1654              51.1582             -2.99278              1.00000
                ho_61        heads              48.3186              52.2447             -3.92607              1.00000
                ho_62        heads              59.1367              59.3683            -0.231582              1.00000
                ho_63        heads              53.5019              54.3948            -0.892902              1.00000
                ho_64        heads              313.117              336.479             -23.3628              1.00000
                ho_65        heads              138.518              145.095             -6.57687              1.00000
                ho_66        heads              337.486              337.314             0.171613              1.00000
                ho_67        heads              147.631              150.826             -3.19541              1.00000
                ho_68        heads              149.403              150.776             -1.37285              1.00000
                ho_69        heads              140.988              145.385             -4.39704              1.00000
                 ho_7        heads              173.466              158.283              15.1827              1.00000
                ho_70        heads              140.142              145.385             -5.24324              1.00000
                ho_71        heads              535.275              550.142             -14.8677              1.00000
                ho_72        heads              228.722              246.125             -17.4034              1.00000
                ho_73        heads              241.856              248.549             -6.69283              1.00000
                ho_74        heads              216.441              221.684             -5.24301              1.00000
                ho_75        heads              221.086              220.275             0.810716              1.00000
                ho_76        heads              252.210              242.182              10.0285              1.00000
                ho_77        heads              229.772              232.428             -2.65581              1.00000
                ho_78        heads              231.815              228.986              2.82861              1.00000
                ho_79        heads              226.911              226.186             0.725124              1.00000
                 ho_8        heads              45.9676              51.4713             -5.50369              1.00000
                ho_80        heads              222.215              241.664             -19.4482              1.00000
                ho_81        heads              205.057              217.506             -12.4491              1.00000
                ho_82        heads              199.295              214.965             -15.6705              1.00000
                ho_83        heads              194.966              220.865             -25.8989              1.00000
                ho_84        heads              196.049              202.338             -6.28897              1.00000
                ho_85        heads              167.548              193.475             -25.9268              1.00000
                ho_86        heads              225.424              224.409              1.01465              1.00000
                ho_87        heads              230.070              232.283             -2.21297              1.00000
                ho_88        heads              227.843              235.546             -7.70240              1.00000
                ho_89        heads              227.538              238.365             -10.8273              1.00000
                 ho_9        heads              49.3246              46.9917              2.33291              1.00000
                ho_90        heads              146.648              194.081             -47.4330              1.00000
                ho_91        heads              209.990              218.510             -8.52029              1.00000
                ho_92        heads              156.622              187.833             -31.2107              1.00000
                ho_93        heads              152.277              208.316             -56.0385              1.00000
                ho_94        heads              190.058              185.813              4.24484              1.00000
                ho_95        heads              162.931              156.302              6.62933              1.00000
                ho_96        heads              113.143              147.770             -34.6267              1.00000
                ho_97        heads              158.129              158.725            -0.596111              1.00000
                ho_98        heads              152.984              158.897             -5.91250              1.00000
                ho_99        heads              164.834              161.013              3.82100              1.00000
               pmpchg       pmpchg             0.000000              16892.8             -16892.8             0.000000

Final composite objective function 
  Final phi                                           Total : 27651.6
  Contribution to phi from observation group       "basflo" : 38.8997
  Contribution to phi from observation group        "ggflo" : 0.000000
  Contribution to phi from observation group        "heads" : 27612.7
  Contribution to phi from observation group       "pmpchg" : 0.000000


Number of forward model runs performed during optimization: 1


pestpp-glm analysis complete...
started at 12/27/21 09:48:55
finished at 12/27/21 09:50:15
took 1.33333 minutes
