             pestpp-glm 5.1.0

    by The PEST++ Development Team



version: 5.1.0
binary compiled on Sep 17 2021 at 09:18:04

using control file: "ss_mf_test.pst"

in directory: "C:\work\projects\russian_river\model\RR_GSFLOW\MODFLOW\modflow_calibration\ss_calibration\slave_dir"
on host: "IGSWCGWWLT6828"
started at 12/23/21 07:46:48


Note 'NOPTMAX' == 0, switching to forgiveness mode when checking inputs

Note: 3 unused lines in pest control file:
  -->  line number 6: '2.000000E+01  -3.000000E+00   3.000000E-01   1.000000E-02        -7' 
  -->  line number 10: '0         0         0' 
  -->  line number 12: '1' 
noptmax = 0, resetting max_run_fail = 1
parameter warning: 1 parameters are at lower bound
parameter warning: 4 parameters are at upper bound

    This software has been approved for release by the
    U.S.Geological Survey(USGS).Although the software has 
    been subjected to rigorous review, the USGS reserves the
    right to update the software as needed pursuant to further
    analysisand review.No warranty, expressed or implied, is 
    made by the USGS or the U.S.Government as to the
    functionality of the softwareand related material nor shall
    the fact of release constitute any such warranty.
    Furthermore, the software is released on condition that
    neither the USGS nor the U.S.Government shall be held
    liable for any damages resulting from its authorized 
    or unauthorized use.


pestmode:- 
   estimation


Case dimensions:- 
    Number of parameters = 412
    Number of adjustable parameters = 323
    Number of observations = 212
    Number of prior estimates = 0

PEST Control Information
    relparmax = 10
    facparmax = 10
    facorig = 0.001
    phiredswh = 0.1
    noptmax = 0
    phiredstp = 0.01
    nphistp = 3
    nphinored = 3
    relparstp = 0.01
    nrelpar = 3


    PEST++ OPTIONS: 

...general options (used in multiple tools): 
svd_pack: redsvd
lambda_scale_fac: 0.75,1,1.1,
forgive_unknown_args: 0
max_run_fail: 1
yamr_poll_interval: 1
parameter_covariance: 
observation_covariance: 
hotstart_resfile: 
overdue_resched_fac: 1.15
overdue_giveup_fac: 100
overdue_giveup_minutes: 1e+30
condor_submit_file: 
tie_by_group: 0
par_sigma_range: 4
enforce_tied_bounds: 0
debug_parse_only: 0
check_tplins: 1
fill_tpl_zeros: 0
additional_ins_delimiters: ,
random_seed: 358183147
num_tpl_ins_threads: 1
save_binary: 0
ensemble_output_precision: 6
panther_echo: 1
panther_agent_restart_on_error: 0
panther_agent_no_ping_timeout_secs: -1
panther_debug_loop: 0
debug_check_par_en_consistency: 0
panther_agent_freeze_on_fail: 0
panther_transfer_on_finish: 
panther_transfer_on_fail: 

...pestpp-glm specific options:
max_n_super: 1000000
super_eigthresh: 1e-06
n_iter_base: 1000000
n_iter_super: 0
super_relparmax: 0.1
max_super_frz_iter: 20
max_reg_iter: 20
lambdas: 0.1,1,10,100,1000,
iteration_summary: 1
der_forgive: 1
uncertainty: 1
forecasts: 
base_jacobian: 
glm_num_reals: 0
jac_scale: 1
glm_normal_form: DIAG
glm_debug_der_fail: 0
glm_debug_lamb_fail: 0
glm_debug_real_fail: 0
glm_accept_mc_phi: 0
glm_rebase_super: 0
glm_iter_mc: 0

...pestpp-swp options:
sweep_parameter_csv_file: 
sweep_output_csv_file: sweep_out.csv
sweep_chunk: 500
sweep_forgive: 0
sweep_base_run: 0

...pestpp-opt options:
opt_objective_function: 
opt_coin_log: 1
opt_skip_final: 0
opt_std_weights: 0
opt_stack_size: 0
opt_par_stack: 
opt_obs_stack: 
opt_decision_variable_groups: 
opt_external_variable_groups: 
opt_constraint_groups: 
opt_risk: 0.5
opt_iter_derinc_fac: 1
opt_direction: 1
opt_iter_tol: 0.001
opt_recalc_fosm_every: 1
opt_chance_points: SINGLE

...pestpp-sqp options:
sqp_dv_en: 
sqp_obs_restart_en: 
sqp_num_reals: -1
sqp_update_hessian: 0
sqp_scale_facs:
  1e-05
  0.0001
  0.01
  0.1
  1

...pestpp-mou options:
mou_generator: DE
mou_population_size: 100
mou_dv_population_file: 
mou_obs_population_restart_file: 
mou_objectives: 
mou_max_archive_size: 500
mou_risk_objective: 0
mou_verbose_level: 1
mou_env_selector: NSGA
mou_mating_selector: TOURNAMENT
mou_crossover_prob: 0.75
mou_mutation_prob: -999
mou_de_f: 0.8
mou_save_population_every: -1
mou_pso_omega: 0.7
mou_pso_social_const: 2
mou_pso_cognitive: 2
mou_population_schedule: 
mou_simplex_reflections:10
mou_simplex_factors: 
 0.5
 0.6
 0.7
 0.8

...shared pestpp-ies/pestpp-da options:
(note: 'da' args override 'ies' args when using pestpp-da)
ies_parameter_ensemble: 
ies_observation_ensemble: 
ies_weights_ensemble: 
ies_restart_parameter_ensemble: 
ies_restart_observation_ensemble: 
ies_use_approximate_solution: 1
ies_lambda_mults: 0.1,1,10,
ies_initial_lambda: 0
ies_use_approx: 1
ies_subset_size: 4
ies_reg_factor: 0
ies_verbose_level: 0
ies_use_prior_scaling: 0
ies_num_reals: 50
ies_bad_phi: 1e+300
ies_bad_phi_sigma: 1e+300
ies_include_base: 1
ies_use_empirical_prior: 0
ies_group_draws: 0
ies_enforce_bounds: 1
ies_localizer: 
ies_accept_phi_fac: 1.05
ies_lambda_inc_fac: 10
ies_lambda_dec_fac: 0.75
ies_save_lambda_ensembles: 0
ies_subset_how: RANDOM
ies_localize_how: PARAMETERS
ies_num_threads: -1
ies_debug_fail_subset: 0
ies_debug_fail_remainder: 0
ies_debug_bad_phi: 0
ies_debug_upgrade_only: 0
ies_debug_high_subset_phi: 0
ies_debug_high_upgrade_phi: 0
ies_csv_by_reals: 1
ies_autoadaloc: 0
ies_autoadaloc_sigma_dist: 1
ies_enforce_chglim: 0
ies_center_on: 
ies_no_noise: 0
ies_drop_conflicts: 0
ies_save_rescov:0
ies_pdc_sigma_distance: -1
ies_use_mda: 0
ies_mda_init_fac: 10
ies_mda_dec_fac: 0.5
ies_localization_type: LOCAL
ies_upgrades_in_memory: 1
ies_ordered_binary: 1
ies_multimodal_alpha: 1

pestpp-sen options: 
gsa_method: MORRIS
gsa_morris_pooled_obs: 0
gsa_morris_obs_sen: 1
gsa_morris_p: 4
gsa_morris_r: 4
gsa_morris_delta: 0.6666
gsa_sobol_samples: 4
gsa_sobol_par_dist: norm
pestpp-da options (those not shared with pestpp-ies):
da_parameter_cycle_table: 
da_observation_cycle_table: 
da_hotstart_cycle: 0
da_stop_cycle: 1000000000
da_use_simulated_states: 1



Model command line(s):- 
    run_model.bat

Model interface files:-
    template files:
      tplfile.tpl
    model input files:
      input_param.csv

    instruction files:
      insfile.ins
    model output files:
      model_output.csv


Parameter group information
NAME             INCREMENT TYPE     DERIVATIVE INCREMENT    INCREMENT LOWER BOUND  FORCE CENTRAL     INCREMENT MULTIPLIER
upw_ks                 RELATIVE                     0.03                        0         SWITCH                        2
uzf_surfk              RELATIVE                     0.03                        0         SWITCH                        2
uzf_vks                RELATIVE                     0.03                        0         SWITCH                        2
uzf_finf               RELATIVE                     0.03                        0         SWITCH                        2
sfr_ks                 RELATIVE                     0.03                        0         SWITCH                        2
upw_vka                RELATIVE                     0.03                        0         SWITCH                        2
sfr_spil               RELATIVE                     0.03                        0         SWITCH                        2
lak_cd                 RELATIVE                     0.03                        0         SWITCH                        2
well_rubber_dam        RELATIVE                     0.03                        0         SWITCH                        2
uzf_pet                RELATIVE                     0.03                        0         SWITCH                        2



Parameter information
NAME          TRANSFORMATION        CHANGE LIMIT  INITIAL VALUE    LOWER BOUND    UPPER BOUND           GROUP          SCALE         OFFSET  DERIVATIVE COMMAND
finf_1        fixed                   FACTOR       0.483035           0.01              1        uzf_finf              1              0                   1
finf_10       fixed                   FACTOR       0.472505           0.01              1        uzf_finf              1              0                   1
finf_11       fixed                   FACTOR       0.472505           0.01              1        uzf_finf              1              0                   1
finf_12       fixed                   FACTOR       0.472505           0.01              1        uzf_finf              1              0                   1
finf_13       fixed                   FACTOR       0.472505           0.01              1        uzf_finf              1              0                   1
finf_14       fixed                   FACTOR       0.483035           0.01              1        uzf_finf              1              0                   1
finf_15       fixed                   FACTOR       0.483035           0.01              1        uzf_finf              1              0                   1
finf_16       fixed                   FACTOR       0.483035           0.01              1        uzf_finf              1              0                   1
finf_17       fixed                   FACTOR       0.483035           0.01              1        uzf_finf              1              0                   1
finf_18       fixed                   FACTOR       0.483035           0.01              1        uzf_finf              1              0                   1
finf_19       fixed                   FACTOR       0.483035           0.01              1        uzf_finf              1              0                   1
finf_2        fixed                   FACTOR       0.483035           0.01              1        uzf_finf              1              0                   1
finf_20       fixed                   FACTOR       0.528462           0.01              1        uzf_finf              1              0                   1
finf_21       fixed                   FACTOR       0.483035           0.01              1        uzf_finf              1              0                   1
finf_22       fixed                   FACTOR       0.483035           0.01              1        uzf_finf              1              0                   1
finf_3        fixed                   FACTOR       0.483035           0.01              1        uzf_finf              1              0                   1
finf_4        fixed                   FACTOR        0.41058           0.01              1        uzf_finf              1              0                   1
finf_5        fixed                   FACTOR        0.41058           0.01              1        uzf_finf              1              0                   1
finf_6        fixed                   FACTOR       0.483035           0.01              1        uzf_finf              1              0                   1
finf_7        fixed                   FACTOR       0.472505           0.01              1        uzf_finf              1              0                   1
finf_8        fixed                   FACTOR       0.472505           0.01              1        uzf_finf              1              0                   1
finf_9        fixed                   FACTOR       0.472505           0.01              1        uzf_finf              1              0                   1
ks_1          log                     FACTOR        2.38458          1e-05            500          upw_ks              1              0                   1
ks_10         log                     FACTOR        1.83441          1e-05            500          upw_ks              1              0                   1
ks_100        log                     FACTOR       6.47e-05          1e-06            500          upw_ks              1              0                   1
ks_101        log                     FACTOR       0.000692          1e-05            500          upw_ks              1              0                   1
ks_102        log                     FACTOR        7.4e-05          1e-06            500          upw_ks              1              0                   1
ks_103        log                     FACTOR       0.000344          1e-05            500          upw_ks              1              0                   1
ks_104        log                     FACTOR       9.68e-06          1e-06            500          upw_ks              1              0                   1
ks_105        log                     FACTOR       9.78e-06          1e-06            500          upw_ks              1              0                   1
ks_106        log                     FACTOR       0.000145          1e-05            500          upw_ks              1              0                   1
ks_107        log                     FACTOR       0.000251          1e-05            500          upw_ks              1              0                   1
ks_108        log                     FACTOR        4.49419          1e-05            500          upw_ks              1              0                   1
ks_109        log                     FACTOR        7.57701          1e-05            500          upw_ks              1              0                   1
ks_11         log                     FACTOR       0.347789          1e-05            500          upw_ks              1              0                   1
ks_110        log                     FACTOR        3.81348          1e-05            500          upw_ks              1              0                   1
ks_111        log                     FACTOR        8.91185          1e-05            500          upw_ks              1              0                   1
ks_112        log                     FACTOR        4.62197          1e-05            500          upw_ks              1              0                   1
ks_113        log                     FACTOR      0.0704361          1e-05            500          upw_ks              1              0                   1
ks_114        log                     FACTOR        9.76246          1e-05            500          upw_ks              1              0                   1
ks_115        log                     FACTOR        6.76202          1e-05            500          upw_ks              1              0                   1
ks_116        log                     FACTOR       0.390227          1e-05            500          upw_ks              1              0                   1
ks_117        log                     FACTOR        13.8964          1e-05            500          upw_ks              1              0                   1
ks_118        log                     FACTOR        1.98597          1e-05            500          upw_ks              1              0                   1
ks_119        log                     FACTOR        10.6775          1e-05            500          upw_ks              1              0                   1
ks_12         log                     FACTOR        9.26905          1e-05            500          upw_ks              1              0                   1
ks_120        log                     FACTOR       0.122009          1e-05            500          upw_ks              1              0                   1
ks_121        log                     FACTOR        2.30238          1e-05            500          upw_ks              1              0                   1
ks_122        log                     FACTOR        42.2704          1e-05            500          upw_ks              1              0                   1
ks_123        log                     FACTOR        9.66647          1e-05            500          upw_ks              1              0                   1
ks_124        log                     FACTOR         2.1233          1e-05            500          upw_ks              1              0                   1
ks_125        log                     FACTOR        29.8054          1e-05            500          upw_ks              1              0                   1
ks_126        log                     FACTOR            265          1e-05            500          upw_ks              1              0                   1
ks_127        log                     FACTOR       0.928577          1e-05            500          upw_ks              1              0                   1
ks_128        log                     FACTOR        4.68648          1e-05            500          upw_ks              1              0                   1
ks_129        log                     FACTOR        6.54666          1e-05            500          upw_ks              1              0                   1
ks_13         log                     FACTOR       0.724742          1e-05            500          upw_ks              1              0                   1
ks_130        log                     FACTOR        5.55856          1e-05            500          upw_ks              1              0                   1
ks_131        log                     FACTOR       0.000201          1e-05            500          upw_ks              1              0                   1
ks_132        log                     FACTOR       0.000199          1e-05            500          upw_ks              1              0                   1
ks_133        log                     FACTOR       0.000201          1e-05            500          upw_ks              1              0                   1
ks_134        log                     FACTOR      0.0272014          1e-05            500          upw_ks              1              0                   1
ks_135        log                     FACTOR       0.000159          1e-05            500          upw_ks              1              0                   1
ks_136        log                     FACTOR       0.000244          1e-05            500          upw_ks              1              0                   1
ks_137        log                     FACTOR        0.00385          1e-05            500          upw_ks              1              0                   1
ks_138        log                     FACTOR        6.74015          1e-05            500          upw_ks              1              0                   1
ks_139        log                     FACTOR       0.000229          1e-05            500          upw_ks              1              0                   1
ks_14         log                     FACTOR        4.35608          1e-05            500          upw_ks              1              0                   1
ks_140        log                     FACTOR        15.0065          1e-05            500          upw_ks              1              0                   1
ks_141        log                     FACTOR       0.000198          1e-05            500          upw_ks              1              0                   1
ks_142        log                     FACTOR         0.0002          1e-05            500          upw_ks              1              0                   1
ks_143        log                     FACTOR        0.00139          1e-05            500          upw_ks              1              0                   1
ks_144        log                     FACTOR        1.04906          1e-05            500          upw_ks              1              0                   1
ks_145        log                     FACTOR        29.2848          1e-05            500          upw_ks              1              0                   1
ks_146        log                     FACTOR        5.89995          1e-05            500          upw_ks              1              0                   1
ks_147        log                     FACTOR        2.24907          1e-05            500          upw_ks              1              0                   1
ks_148        log                     FACTOR        6.13536          1e-05            500          upw_ks              1              0                   1
ks_149        log                     FACTOR       0.000266          1e-05            500          upw_ks              1              0                   1
ks_15         log                     FACTOR        1.16277          1e-05            500          upw_ks              1              0                   1
ks_150        log                     FACTOR        7.63014          1e-05            500          upw_ks              1              0                   1
ks_151        log                     FACTOR        6.24238          1e-05            500          upw_ks              1              0                   1
ks_152        log                     FACTOR       0.125561          1e-05            500          upw_ks              1              0                   1
ks_153        log                     FACTOR        48.5618          1e-05            500          upw_ks              1              0                   1
ks_154        log                     FACTOR        31.0662          1e-05            500          upw_ks              1              0                   1
ks_155        log                     FACTOR       0.000175          1e-05            500          upw_ks              1              0                   1
ks_156        log                     FACTOR       0.185537          1e-05            500          upw_ks              1              0                   1
ks_157        log                     FACTOR       0.180145          1e-05            500          upw_ks              1              0                   1
ks_158        log                     FACTOR       0.641564          1e-05            500          upw_ks              1              0                   1
ks_159        log                     FACTOR      0.0265115          1e-05            500          upw_ks              1              0                   1
ks_16         log                     FACTOR            234          1e-05            500          upw_ks              1              0                   1
ks_160        log                     FACTOR        1.09851          1e-05            500          upw_ks              1              0                   1
ks_161        log                     FACTOR            500          1e-05            500          upw_ks              1              0                   1
ks_162        log                     FACTOR       0.196601          1e-05            500          upw_ks              1              0                   1
ks_163        log                     FACTOR      0.0698105          1e-05            500          upw_ks              1              0                   1
ks_164        log                     FACTOR      0.0563574          1e-05            500          upw_ks              1              0                   1
ks_165        log                     FACTOR        7.13465          1e-05            500          upw_ks              1              0                   1
ks_166        log                     FACTOR       0.015612          1e-05            500          upw_ks              1              0                   1
ks_167        log                     FACTOR      0.0246513          1e-05            500          upw_ks              1              0                   1
ks_168        log                     FACTOR      0.0431236          1e-05            500          upw_ks              1              0                   1
ks_169        log                     FACTOR       0.000231          1e-05            500          upw_ks              1              0                   1
ks_17         log                     FACTOR        1.71989          1e-05            500          upw_ks              1              0                   1
ks_170        log                     FACTOR        0.00151          1e-05            500          upw_ks              1              0                   1
ks_171        log                     FACTOR       0.344979          1e-05            500          upw_ks              1              0                   1
ks_172        log                     FACTOR      0.0203377          1e-05            500          upw_ks              1              0                   1
ks_173        log                     FACTOR        0.00584          1e-05            500          upw_ks              1              0                   1
ks_174        log                     FACTOR        6.05553          1e-05            500          upw_ks              1              0                   1
ks_175        log                     FACTOR        0.12935          1e-05            500          upw_ks              1              0                   1
ks_176        log                     FACTOR        0.00143          1e-05            500          upw_ks              1              0                   1
ks_177        log                     FACTOR        1.15636          1e-05            500          upw_ks              1              0                   1
ks_178        log                     FACTOR         0.0002          1e-05            500          upw_ks              1              0                   1
ks_179        log                     FACTOR       0.570999          1e-05            500          upw_ks              1              0                   1
ks_18         log                     FACTOR         2.4534          1e-05            500          upw_ks              1              0                   1
ks_180        log                     FACTOR       1.86e-05          1e-06            500          upw_ks              1              0                   1
ks_181        log                     FACTOR      0.0124134          1e-05            500          upw_ks              1              0                   1
ks_182        log                     FACTOR        5.24153          1e-05            500          upw_ks              1              0                   1
ks_183        log                     FACTOR       0.996228          1e-05            500          upw_ks              1              0                   1
ks_184        log                     FACTOR       0.000334          1e-05            500          upw_ks              1              0                   1
ks_185        log                     FACTOR       9.54e-05          1e-06            500          upw_ks              1              0                   1
ks_186        log                     FACTOR       9.81e-05          1e-06            500          upw_ks              1              0                   1
ks_187        log                     FACTOR       0.000109          1e-05            500          upw_ks              1              0                   1
ks_188        log                     FACTOR       0.000357          1e-05            500          upw_ks              1              0                   1
ks_189        log                     FACTOR       0.000115          1e-05            500          upw_ks              1              0                   1
ks_19         log                     FACTOR        45.9538          1e-05            500          upw_ks              1              0                   1
ks_190        log                     FACTOR       9.63e-06          1e-06            500          upw_ks              1              0                   1
ks_191        log                     FACTOR       0.000101          1e-05            500          upw_ks              1              0                   1
ks_192        log                     FACTOR       0.000122          1e-05            500          upw_ks              1              0                   1
ks_193        log                     FACTOR        0.00145          1e-05            500          upw_ks              1              0                   1
ks_194        log                     FACTOR       9.56e-06          1e-06            500          upw_ks              1              0                   1
ks_195        log                     FACTOR       0.000673          1e-05            500          upw_ks              1              0                   1
ks_196        log                     FACTOR       9.59e-06          1e-06            500          upw_ks              1              0                   1
ks_197        log                     FACTOR       8.18e-05          1e-05            500          upw_ks              1              0                   1
ks_198        log                     FACTOR        0.00017          1e-05            500          upw_ks              1              0                   1
ks_199        log                     FACTOR       1.08e-05          1e-06            500          upw_ks              1              0                   1
ks_2          log                     FACTOR      0.0230232          1e-05            500          upw_ks              1              0                   1
ks_20         log                     FACTOR        1.66126          1e-05            500          upw_ks              1              0                   1
ks_200        log                     FACTOR       9.65e-06          1e-06            500          upw_ks              1              0                   1
ks_201        log                     FACTOR       9.56e-06          1e-06            500          upw_ks              1              0                   1
ks_202        log                     FACTOR       0.000101          1e-05            500          upw_ks              1              0                   1
ks_203        log                     FACTOR       0.000114          1e-05            500          upw_ks              1              0                   1
ks_204        log                     FACTOR       9.95e-05          1e-06            500          upw_ks              1              0                   1
ks_205        log                     FACTOR       0.000103          1e-05            500          upw_ks              1              0                   1
ks_206        log                     FACTOR       9.62e-06          1e-06            500          upw_ks              1              0                   1
ks_207        log                     FACTOR       0.000102          1e-05            500          upw_ks              1              0                   1
ks_208        log                     FACTOR        1.3e-05          1e-06            500          upw_ks              1              0                   1
ks_209        log                     FACTOR       0.000264          1e-05            500          upw_ks              1              0                   1
ks_21         log                     FACTOR       0.966005          1e-05            500          upw_ks              1              0                   1
ks_210        log                     FACTOR       8.67e-05          1e-06            500          upw_ks              1              0                   1
ks_211        log                     FACTOR        8.8e-05          1e-06            500          upw_ks              1              0                   1
ks_212        log                     FACTOR        3.9e-05          1e-05            500          upw_ks              1              0                   1
ks_213        log                     FACTOR       9.55e-05          1e-06            500          upw_ks              1              0                   1
ks_214        log                     FACTOR       9.91e-05          1e-06            500          upw_ks              1              0                   1
ks_215        log                     FACTOR        9.8e-05          1e-06            500          upw_ks              1              0                   1
ks_216        log                     FACTOR         0.0001          1e-05            500          upw_ks              1              0                   1
ks_217        log                     FACTOR        5.4e-05          1e-06            500          upw_ks              1              0                   1
ks_218        log                     FACTOR       5.16e-05          1e-06            500          upw_ks              1              0                   1
ks_219        log                     FACTOR       0.000104          1e-05            500          upw_ks              1              0                   1
ks_22         log                     FACTOR       0.471353          1e-05            500          upw_ks              1              0                   1
ks_220        log                     FACTOR       9.21e-05          1e-06            500          upw_ks              1              0                   1
ks_221        log                     FACTOR       0.000125          1e-05            500          upw_ks              1              0                   1
ks_222        log                     FACTOR       0.000105          1e-05            500          upw_ks              1              0                   1
ks_223        log                     FACTOR       0.000101          1e-05            500          upw_ks              1              0                   1
ks_224        log                     FACTOR       9.97e-05          1e-06            500          upw_ks              1              0                   1
ks_225        log                     FACTOR       9.78e-06          1e-06            500          upw_ks              1              0                   1
ks_226        log                     FACTOR       0.000105          1e-05            500          upw_ks              1              0                   1
ks_227        log                     FACTOR       8.65e-05          1e-06            500          upw_ks              1              0                   1
ks_228        log                     FACTOR       6.25e-05          1e-06            500          upw_ks              1              0                   1
ks_229        log                     FACTOR        0.00039          1e-05            500          upw_ks              1              0                   1
ks_23         log                     FACTOR            362          1e-05            500          upw_ks              1              0                   1
ks_230        log                     FACTOR       1.47e-05          1e-06            500          upw_ks              1              0                   1
ks_231        log                     FACTOR       7.84e-05          1e-06            500          upw_ks              1              0                   1
ks_232        log                     FACTOR       0.000354          1e-05            500          upw_ks              1              0                   1
ks_233        log                     FACTOR       5.73e-05          1e-06            500          upw_ks              1              0                   1
ks_24         log                     FACTOR       0.049146          1e-05            500          upw_ks              1              0                   1
ks_25         log                     FACTOR       0.083399          1e-05            500          upw_ks              1              0                   1
ks_26         log                     FACTOR           5000          1e-05           5000          upw_ks              1              0                   1
ks_27         log                     FACTOR       0.205893          1e-05            500          upw_ks              1              0                   1
ks_28         log                     FACTOR       0.349053          1e-05            500          upw_ks              1              0                   1
ks_29         log                     FACTOR        3.38511          1e-05            500          upw_ks              1              0                   1
ks_3          log                     FACTOR       0.773116          1e-05            500          upw_ks              1              0                   1
ks_30         log                     FACTOR       9.69e-06          1e-06            500          upw_ks              1              0                   1
ks_31         log                     FACTOR        2.72432          1e-05            500          upw_ks              1              0                   1
ks_32         log                     FACTOR       0.000189          1e-05            500          upw_ks              1              0                   1
ks_33         log                     FACTOR       0.102023          1e-05            500          upw_ks              1              0                   1
ks_34         log                     FACTOR        50.9518          1e-05            500          upw_ks              1              0                   1
ks_35         log                     FACTOR       0.000181          1e-05            500          upw_ks              1              0                   1
ks_36         log                     FACTOR       0.000484          1e-05            500          upw_ks              1              0                   1
ks_37         log                     FACTOR       0.000207          1e-05            500          upw_ks              1              0                   1
ks_38         log                     FACTOR        0.08028          1e-05            500          upw_ks              1              0                   1
ks_39         log                     FACTOR       0.000195          1e-05            500          upw_ks              1              0                   1
ks_4          log                     FACTOR         68.553          1e-05            500          upw_ks              1              0                   1
ks_40         log                     FACTOR        1.17776          1e-05            500          upw_ks              1              0                   1
ks_41         log                     FACTOR        1.18304          1e-05            500          upw_ks              1              0                   1
ks_42         log                     FACTOR        2.39047          1e-05            500          upw_ks              1              0                   1
ks_43         log                     FACTOR      0.0873561          1e-05            500          upw_ks              1              0                   1
ks_44         log                     FACTOR       0.299291          1e-05            500          upw_ks              1              0                   1
ks_45         log                     FACTOR      0.0120236          1e-05            500          upw_ks              1              0                   1
ks_46         log                     FACTOR       0.182526          1e-05            500          upw_ks              1              0                   1
ks_47         log                     FACTOR        5.63642          1e-05            500          upw_ks              1              0                   1
ks_48         log                     FACTOR        9.16324          1e-05            500          upw_ks              1              0                   1
ks_49         log                     FACTOR       0.000176          1e-05            500          upw_ks              1              0                   1
ks_5          log                     FACTOR            159          1e-05            500          upw_ks              1              0                   1
ks_50         log                     FACTOR        3.93419          1e-05            500          upw_ks              1              0                   1
ks_51         log                     FACTOR       4.24e-05          1e-06            500          upw_ks              1              0                   1
ks_52         log                     FACTOR        0.00336          1e-05            500          upw_ks              1              0                   1
ks_53         log                     FACTOR        5.11338          1e-05            500          upw_ks              1              0                   1
ks_54         log                     FACTOR      0.0185949          1e-05            500          upw_ks              1              0                   1
ks_55         log                     FACTOR        9.17403          1e-05            500          upw_ks              1              0                   1
ks_56         log                     FACTOR        73.1444          1e-05            500          upw_ks              1              0                   1
ks_57         log                     FACTOR        4.91491          1e-05            500          upw_ks              1              0                   1
ks_58         log                     FACTOR       0.320067          1e-05            500          upw_ks              1              0                   1
ks_59         log                     FACTOR      0.0629295          1e-05            500          upw_ks              1              0                   1
ks_6          log                     FACTOR            245          1e-05            500          upw_ks              1              0                   1
ks_60         log                     FACTOR        4.62419          1e-05            500          upw_ks              1              0                   1
ks_61         log                     FACTOR      0.0293437          1e-05            500          upw_ks              1              0                   1
ks_62         log                     FACTOR        0.19408          1e-05            500          upw_ks              1              0                   1
ks_63         log                     FACTOR        10.9434          1e-05            500          upw_ks              1              0                   1
ks_64         log                     FACTOR        0.00057          1e-05            500          upw_ks              1              0                   1
ks_65         log                     FACTOR        0.00145          1e-05            500          upw_ks              1              0                   1
ks_66         log                     FACTOR        5.72797          1e-05            500          upw_ks              1              0                   1
ks_67         log                     FACTOR        11.9567          1e-05            500          upw_ks              1              0                   1
ks_68         log                     FACTOR        0.00668          1e-05            500          upw_ks              1              0                   1
ks_69         log                     FACTOR       0.760225          1e-05            500          upw_ks              1              0                   1
ks_7          log                     FACTOR       9.88e-06          1e-06            500          upw_ks              1              0                   1
ks_70         log                     FACTOR        3.89028          1e-05            500          upw_ks              1              0                   1
ks_71         log                     FACTOR       9.67e-06          1e-06            500          upw_ks              1              0                   1
ks_72         log                     FACTOR       8.91e-05          1e-06            500          upw_ks              1              0                   1
ks_73         log                     FACTOR       0.000101          1e-05            500          upw_ks              1              0                   1
ks_74         log                     FACTOR       9.33e-05          1e-06            500          upw_ks              1              0                   1
ks_75         log                     FACTOR       1.14e-05          1e-06            500          upw_ks              1              0                   1
ks_76         log                     FACTOR       0.000146          1e-05            500          upw_ks              1              0                   1
ks_77         log                     FACTOR       0.000102          1e-05            500          upw_ks              1              0                   1
ks_78         log                     FACTOR       1.41e-05          1e-06            500          upw_ks              1              0                   1
ks_79         log                     FACTOR       9.61e-06          1e-06            500          upw_ks              1              0                   1
ks_8          log                     FACTOR       9.69e-06          1e-06            500          upw_ks              1              0                   1
ks_80         log                     FACTOR            189          1e-05            500          upw_ks              1              0                   1
ks_81         log                     FACTOR       8.46e-05          1e-06            500          upw_ks              1              0                   1
ks_82         log                     FACTOR            500          1e-05            500          upw_ks              1              0                   1
ks_83         log                     FACTOR        6.81582          1e-05            500          upw_ks              1              0                   1
ks_84         log                     FACTOR       8.43e-05          1e-06            500          upw_ks              1              0                   1
ks_85         log                     FACTOR       1.25e-05          1e-06            500          upw_ks              1              0                   1
ks_86         log                     FACTOR       0.000131          1e-05            500          upw_ks              1              0                   1
ks_87         log                     FACTOR            500          1e-05            500          upw_ks              1              0                   1
ks_88         log                     FACTOR         26.816          1e-05            500          upw_ks              1              0                   1
ks_89         log                     FACTOR       7.76e-05          1e-05            500          upw_ks              1              0                   1
ks_9          log                     FACTOR         8.2024          1e-05            500          upw_ks              1              0                   1
ks_90         log                     FACTOR        4.64516          1e-05            500          upw_ks              1              0                   1
ks_91         log                     FACTOR        14.9836          1e-05            500          upw_ks              1              0                   1
ks_92         log                     FACTOR       0.000114          1e-05            500          upw_ks              1              0                   1
ks_93         log                     FACTOR       0.185523          1e-05            500          upw_ks              1              0                   1
ks_94         log                     FACTOR       9.59e-06          1e-06            500          upw_ks              1              0                   1
ks_95         log                     FACTOR       9.99e-05          1e-05            500          upw_ks              1              0                   1
ks_96         log                     FACTOR       0.000173          1e-05            500          upw_ks              1              0                   1
ks_97         log                     FACTOR       2.99e-05          1e-06            500          upw_ks              1              0                   1
ks_98         log                     FACTOR       0.000109          1e-05            500          upw_ks              1              0                   1
ks_99         log                     FACTOR       0.000106          1e-05            500          upw_ks              1              0                   1
lak_cond_1    fixed                   FACTOR              1        1.1e-10        1.1e+10          lak_cd              1              0                   1
lak_cond_12   log                     FACTOR        1.02947            0.1          10000          lak_cd              1              0                   1
lak_cond_2    fixed                   FACTOR              1        1.1e-10        1.1e+10          lak_cd              1              0                   1
pet_1         fixed                   FACTOR        9.5e-05        1.1e-10        1.1e+10         uzf_pet              1              0                   1
pond_recharge log                     FACTOR          22000              1         100000 well_rubber_dam              1              0                   1
sfr_k_1       log                     FACTOR      0.0605289          1e-05            500          sfr_ks              1              0                   1
sfr_k_10      log                     FACTOR       0.113024          1e-05            500          sfr_ks              1              0                   1
sfr_k_11      log                     FACTOR       0.217042          1e-05            500          sfr_ks              1              0                   1
sfr_k_12      log                     FACTOR       0.884977          1e-05            500          sfr_ks              1              0                   1
sfr_k_13      log                     FACTOR      0.0996134          1e-05            500          sfr_ks              1              0                   1
sfr_k_14      log                     FACTOR        0.19625          1e-05            500          sfr_ks              1              0                   1
sfr_k_15      log                     FACTOR       0.129128          1e-05            500          sfr_ks              1              0                   1
sfr_k_16      log                     FACTOR       0.268345          1e-05            500          sfr_ks              1              0                   1
sfr_k_17      log                     FACTOR       0.108845          1e-05            500          sfr_ks              1              0                   1
sfr_k_18      log                     FACTOR       0.141475          1e-05            500          sfr_ks              1              0                   1
sfr_k_19      log                     FACTOR        0.10352          1e-05            500          sfr_ks              1              0                   1
sfr_k_2       log                     FACTOR       0.181512          1e-05            500          sfr_ks              1              0                   1
sfr_k_20      log                     FACTOR        0.10393          1e-05            500          sfr_ks              1              0                   1
sfr_k_21      log                     FACTOR        0.17615          1e-05            500          sfr_ks              1              0                   1
sfr_k_22      log                     FACTOR       0.125671          1e-05            500          sfr_ks              1              0                   1
sfr_k_3       log                     FACTOR      0.0941533          1e-05            500          sfr_ks              1              0                   1
sfr_k_4       log                     FACTOR      0.0305992          1e-05            500          sfr_ks              1              0                   1
sfr_k_5       log                     FACTOR       0.205416          1e-05            500          sfr_ks              1              0                   1
sfr_k_6       log                     FACTOR       0.585941          1e-05            500          sfr_ks              1              0                   1
sfr_k_7       log                     FACTOR       0.254318          1e-05            500          sfr_ks              1              0                   1
sfr_k_8       log                     FACTOR       0.302234          1e-05            500          sfr_ks              1              0                   1
sfr_k_9       log                     FACTOR       0.177565          1e-05            500          sfr_ks              1              0                   1
spill_447     fixed                   FACTOR            185            100            220        sfr_spil              1              0                   1
spill_449     fixed                   FACTOR            147            100            220        sfr_spil              1              0                   1
spill_688     none                    FACTOR           8.23           8.23           11.6        sfr_spil              1              0                   1
surfk_1_1     log                     FACTOR       0.000224          1e-10            500       uzf_surfk              1              0                   1
surfk_1_10    log                     FACTOR       0.000253          1e-10            500       uzf_surfk              1              0                   1
surfk_1_11    log                     FACTOR       0.000251          1e-10            500       uzf_surfk              1              0                   1
surfk_1_12    log                     FACTOR       0.000251          1e-10            500       uzf_surfk              1              0                   1
surfk_1_13    log                     FACTOR       0.000251          1e-10            500       uzf_surfk              1              0                   1
surfk_1_14    log                     FACTOR       0.000251          1e-10            500       uzf_surfk              1              0                   1
surfk_1_15    log                     FACTOR       0.000231          1e-10            500       uzf_surfk              1              0                   1
surfk_1_16    log                     FACTOR       0.000228          1e-10            500       uzf_surfk              1              0                   1
surfk_1_17    log                     FACTOR       0.000251          1e-10            500       uzf_surfk              1              0                   1
surfk_1_18    log                     FACTOR       0.000264          1e-10            500       uzf_surfk              1              0                   1
surfk_1_19    log                     FACTOR       0.000251          1e-10            500       uzf_surfk              1              0                   1
surfk_1_2     log                     FACTOR       0.000225          1e-10            500       uzf_surfk              1              0                   1
surfk_1_21    log                     FACTOR       0.000249          1e-10            500       uzf_surfk              1              0                   1
surfk_1_3     log                     FACTOR       0.000232          1e-10            500       uzf_surfk              1              0                   1
surfk_1_4     log                     FACTOR       0.000346          1e-10            500       uzf_surfk              1              0                   1
surfk_1_5     log                     FACTOR       0.000333          1e-10            500       uzf_surfk              1              0                   1
surfk_1_6     log                     FACTOR       0.000231          1e-10            500       uzf_surfk              1              0                   1
surfk_1_8     log                     FACTOR       0.000249          1e-10            500       uzf_surfk              1              0                   1
surfk_1_9     log                     FACTOR       0.000212          1e-10            500       uzf_surfk              1              0                   1
surfk_2_1     log                     FACTOR       0.000316          1e-10            500       uzf_surfk              1              0                   1
surfk_2_10    log                     FACTOR       0.000247          1e-10            500       uzf_surfk              1              0                   1
surfk_2_11    log                     FACTOR       0.000231          1e-10            500       uzf_surfk              1              0                   1
surfk_2_12    log                     FACTOR       0.000208          1e-10            500       uzf_surfk              1              0                   1
surfk_2_14    log                     FACTOR       0.000145          1e-10            500       uzf_surfk              1              0                   1
surfk_2_15    log                     FACTOR       0.000163          1e-10            500       uzf_surfk              1              0                   1
surfk_2_16    log                     FACTOR       0.000153          1e-10            500       uzf_surfk              1              0                   1
surfk_2_17    log                     FACTOR       0.000158          1e-10            500       uzf_surfk              1              0                   1
surfk_2_18    log                     FACTOR       0.000172          1e-10            500       uzf_surfk              1              0                   1
surfk_2_19    log                     FACTOR       0.000158          1e-10            500       uzf_surfk              1              0                   1
surfk_2_2     log                     FACTOR       9.26e-05          1e-10            500       uzf_surfk              1              0                   1
surfk_2_20    log                     FACTOR       0.000566          1e-10            500       uzf_surfk              1              0                   1
surfk_2_21    log                     FACTOR       0.000158          1e-10            500       uzf_surfk              1              0                   1
surfk_2_22    log                     FACTOR       0.000152          1e-10            500       uzf_surfk              1              0                   1
surfk_2_3     log                     FACTOR       9.98e-05          1e-10            500       uzf_surfk              1              0                   1
surfk_2_4     log                     FACTOR       0.000221          1e-10            500       uzf_surfk              1              0                   1
surfk_2_5     log                     FACTOR       0.000262          1e-10            500       uzf_surfk              1              0                   1
surfk_2_6     log                     FACTOR       0.000129          1e-10            500       uzf_surfk              1              0                   1
surfk_2_7     log                     FACTOR       0.000241          1e-10            500       uzf_surfk              1              0                   1
surfk_2_8     log                     FACTOR       0.000242          1e-10            500       uzf_surfk              1              0                   1
surfk_2_9     log                     FACTOR       0.000216          1e-10            500       uzf_surfk              1              0                   1
surfk_3_1     log                     FACTOR       3.01e-08          1e-10            500       uzf_surfk              1              0                   1
surfk_3_10    log                     FACTOR        3.1e-08          1e-10            500       uzf_surfk              1              0                   1
surfk_3_11    log                     FACTOR        3.1e-08          1e-10            500       uzf_surfk              1              0                   1
surfk_3_12    log                     FACTOR        3.1e-08          1e-10            500       uzf_surfk              1              0                   1
surfk_3_13    log                     FACTOR        3.1e-08          1e-10            500       uzf_surfk              1              0                   1
surfk_3_14    log                     FACTOR       3.15e-08          1e-10            500       uzf_surfk              1              0                   1
surfk_3_15    log                     FACTOR       3.08e-08          1e-10            500       uzf_surfk              1              0                   1
surfk_3_16    log                     FACTOR       1.04e-07          1e-10            500       uzf_surfk              1              0                   1
surfk_3_17    log                     FACTOR       3.18e-08          1e-10            500       uzf_surfk              1              0                   1
surfk_3_18    log                     FACTOR       2.99e-08          1e-10            500       uzf_surfk              1              0                   1
surfk_3_19    log                     FACTOR        3.1e-08          1e-10            500       uzf_surfk              1              0                   1
surfk_3_2     log                     FACTOR       3.08e-08          1e-10            500       uzf_surfk              1              0                   1
surfk_3_20    log                     FACTOR       1.11e-07          1e-10            500       uzf_surfk              1              0                   1
surfk_3_21    log                     FACTOR        3.1e-08          1e-10            500       uzf_surfk              1              0                   1
surfk_3_22    log                     FACTOR       2.48e-08          1e-10            500       uzf_surfk              1              0                   1
surfk_3_3     log                     FACTOR       3.08e-08          1e-10            500       uzf_surfk              1              0                   1
surfk_3_4     log                     FACTOR       3.08e-08          1e-10            500       uzf_surfk              1              0                   1
surfk_3_5     log                     FACTOR        3.1e-08          1e-10            500       uzf_surfk              1              0                   1
surfk_3_6     log                     FACTOR       9.98e-08          1e-10            500       uzf_surfk              1              0                   1
surfk_3_7     log                     FACTOR       3.08e-08          1e-10            500       uzf_surfk              1              0                   1
surfk_3_8     log                     FACTOR        3.1e-08          1e-10            500       uzf_surfk              1              0                   1
surfk_3_9     log                     FACTOR        3.1e-08          1e-10            500       uzf_surfk              1              0                   1
vka_ratio_1   none                    FACTOR       0.343478        1.1e-10        1.1e+10         upw_vka              1              0                   1
vka_ratio_2   none                    FACTOR       0.101393        1.1e-10        1.1e+10         upw_vka              1              0                   1
vka_ratio_3   none                    FACTOR      0.0601119        1.1e-10        1.1e+10         upw_vka              1              0                   1
vks_1_1       fixed                   FACTOR       0.000251          1e-10            500         uzf_vks              1              0                   1
vks_1_10      fixed                   FACTOR       0.000251          1e-10            500         uzf_vks              1              0                   1
vks_1_11      fixed                   FACTOR       0.000251          1e-10            500         uzf_vks              1              0                   1
vks_1_12      fixed                   FACTOR       0.000251          1e-10            500         uzf_vks              1              0                   1
vks_1_13      fixed                   FACTOR       0.000251          1e-10            500         uzf_vks              1              0                   1
vks_1_14      fixed                   FACTOR       0.000251          1e-10            500         uzf_vks              1              0                   1
vks_1_15      fixed                   FACTOR       0.000251          1e-10            500         uzf_vks              1              0                   1
vks_1_16      fixed                   FACTOR       0.000251          1e-10            500         uzf_vks              1              0                   1
vks_1_17      fixed                   FACTOR       0.000251          1e-10            500         uzf_vks              1              0                   1
vks_1_18      fixed                   FACTOR       0.000251          1e-10            500         uzf_vks              1              0                   1
vks_1_19      fixed                   FACTOR       0.000251          1e-10            500         uzf_vks              1              0                   1
vks_1_2       fixed                   FACTOR       0.000251          1e-10            500         uzf_vks              1              0                   1
vks_1_21      fixed                   FACTOR       0.000251          1e-10            500         uzf_vks              1              0                   1
vks_1_3       fixed                   FACTOR       0.000251          1e-10            500         uzf_vks              1              0                   1
vks_1_4       fixed                   FACTOR       0.000398          1e-10            500         uzf_vks              1              0                   1
vks_1_5       fixed                   FACTOR       0.000398          1e-10            500         uzf_vks              1              0                   1
vks_1_6       fixed                   FACTOR       0.000251          1e-10            500         uzf_vks              1              0                   1
vks_1_8       fixed                   FACTOR       0.000251          1e-10            500         uzf_vks              1              0                   1
vks_1_9       fixed                   FACTOR       0.000251          1e-10            500         uzf_vks              1              0                   1
vks_2_1       fixed                   FACTOR       0.000251          1e-10            500         uzf_vks              1              0                   1
vks_2_10      fixed                   FACTOR       0.000251          1e-10            500         uzf_vks              1              0                   1
vks_2_11      fixed                   FACTOR       0.000251          1e-10            500         uzf_vks              1              0                   1
vks_2_12      fixed                   FACTOR       0.000251          1e-10            500         uzf_vks              1              0                   1
vks_2_14      fixed                   FACTOR       0.000158          1e-10            500         uzf_vks              1              0                   1
vks_2_15      fixed                   FACTOR       0.000158          1e-10            500         uzf_vks              1              0                   1
vks_2_16      fixed                   FACTOR       0.000158          1e-10            500         uzf_vks              1              0                   1
vks_2_17      fixed                   FACTOR       0.000158          1e-10            500         uzf_vks              1              0                   1
vks_2_18      fixed                   FACTOR       0.000158          1e-10            500         uzf_vks              1              0                   1
vks_2_19      fixed                   FACTOR       0.000158          1e-10            500         uzf_vks              1              0                   1
vks_2_2       fixed                   FACTOR         0.0001          1e-10            500         uzf_vks              1              0                   1
vks_2_20      fixed                   FACTOR       0.000631          1e-10            500         uzf_vks              1              0                   1
vks_2_21      fixed                   FACTOR       0.000158          1e-10            500         uzf_vks              1              0                   1
vks_2_22      fixed                   FACTOR       0.000158          1e-10            500         uzf_vks              1              0                   1
vks_2_3       fixed                   FACTOR         0.0001          1e-10            500         uzf_vks              1              0                   1
vks_2_4       fixed                   FACTOR       0.000251          1e-10            500         uzf_vks              1              0                   1
vks_2_5       fixed                   FACTOR       0.000251          1e-10            500         uzf_vks              1              0                   1
vks_2_6       fixed                   FACTOR       0.000158          1e-10            500         uzf_vks              1              0                   1
vks_2_7       fixed                   FACTOR       0.000251          1e-10            500         uzf_vks              1              0                   1
vks_2_8       fixed                   FACTOR       0.000251          1e-10            500         uzf_vks              1              0                   1
vks_2_9       fixed                   FACTOR       0.000251          1e-10            500         uzf_vks              1              0                   1
vks_3_1       fixed                   FACTOR       3.02e-08          1e-10            500         uzf_vks              1              0                   1
vks_3_10      fixed                   FACTOR       3.09e-08          1e-10            500         uzf_vks              1              0                   1
vks_3_11      fixed                   FACTOR       3.09e-08          1e-10            500         uzf_vks              1              0                   1
vks_3_12      fixed                   FACTOR       3.09e-08          1e-10            500         uzf_vks              1              0                   1
vks_3_13      fixed                   FACTOR       3.09e-08          1e-10            500         uzf_vks              1              0                   1
vks_3_14      fixed                   FACTOR       3.09e-08          1e-10            500         uzf_vks              1              0                   1
vks_3_15      fixed                   FACTOR       3.09e-08          1e-10            500         uzf_vks              1              0                   1
vks_3_16      fixed                   FACTOR          1e-07          1e-10            500         uzf_vks              1              0                   1
vks_3_17      fixed                   FACTOR       3.09e-08          1e-10            500         uzf_vks              1              0                   1
vks_3_18      fixed                   FACTOR       3.09e-08          1e-10            500         uzf_vks              1              0                   1
vks_3_19      fixed                   FACTOR       3.09e-08          1e-10            500         uzf_vks              1              0                   1
vks_3_2       fixed                   FACTOR       3.09e-08          1e-10            500         uzf_vks              1              0                   1
vks_3_20      fixed                   FACTOR       1.15e-07          1e-10            500         uzf_vks              1              0                   1
vks_3_21      fixed                   FACTOR       3.09e-08          1e-10            500         uzf_vks              1              0                   1
vks_3_22      fixed                   FACTOR       3.09e-08          1e-10            500         uzf_vks              1              0                   1
vks_3_3       fixed                   FACTOR       3.09e-08          1e-10            500         uzf_vks              1              0                   1
vks_3_4       fixed                   FACTOR       3.09e-08          1e-10            500         uzf_vks              1              0                   1
vks_3_5       fixed                   FACTOR       3.09e-08          1e-10            500         uzf_vks              1              0                   1
vks_3_6       fixed                   FACTOR          1e-07          1e-10            500         uzf_vks              1              0                   1
vks_3_7       fixed                   FACTOR       3.09e-08          1e-10            500         uzf_vks              1              0                   1
vks_3_8       fixed                   FACTOR       3.09e-08          1e-10            500         uzf_vks              1              0                   1
vks_3_9       fixed                   FACTOR       3.09e-08          1e-10            500         uzf_vks              1              0                   1



Observation information
NAME                                VALUE                GROUP              WEIGHT
bsflo_1                             0.114               basflo             47.3879
bsflo_10                             -999               basflo                   0
bsflo_11                             -999               basflo                   0
bsflo_12                             -999               basflo                   0
bsflo_13                            0.114               basflo             47.3879
bsflo_14                             -999               basflo                   0
bsflo_15                             -999               basflo                   0
bsflo_16                            0.114               basflo             47.3879
bsflo_17                             -999               basflo                   0
bsflo_18                            0.114               basflo             47.3879
bsflo_19                             -999               basflo                   0
bsflo_2                             0.114               basflo             47.3879
bsflo_20                             -999               basflo                   0
bsflo_3                              -999               basflo                   0
bsflo_4                              -999               basflo                   0
bsflo_5                             0.114               basflo             47.3879
bsflo_6                             0.114               basflo             47.3879
bsflo_7                              -999               basflo                   0
bsflo_8                              -999               basflo                   0
bsflo_9                              -999               basflo                   0
gflo_1                             395596                ggflo                   0
gflo_10                            268818                ggflo                   0
gflo_11                            2347.1                ggflo                   0
gflo_12                            272439                ggflo                   0
gflo_13                       3.12006e+06                ggflo                   0
gflo_14                            715847                ggflo                   0
gflo_15                            270012                ggflo                   0
gflo_16                            192046                ggflo                   0
gflo_17                            709278                ggflo                   0
gflo_18                       4.89947e+06                ggflo                   0
gflo_19                              -999                ggflo                   0
gflo_2                             634757                ggflo                   0
gflo_20                            375102                ggflo                   0
gflo_3                             673223                ggflo                   0
gflo_4                             883062                ggflo                   0
gflo_5                        1.49115e+06                ggflo                   0
gflo_6                        2.02711e+06                ggflo                   0
gflo_7                             103461                ggflo                   0
gflo_8                            69467.9                ggflo                   0
gflo_9                             256582                ggflo                   0
ho_0                              68.2503                heads                   1
ho_1                               314.63                heads                   1
ho_10                              48.455                heads                   1
ho_100                            190.365                heads                   1
ho_101                            158.747                heads                   1
ho_102                            160.161                heads                   1
ho_103                            175.496                heads                   1
ho_104                            170.152                heads                   1
ho_105                            168.534                heads                   1
ho_106                             166.46                heads                   1
ho_107                            170.016                heads                   1
ho_108                            170.801                heads                   1
ho_109                            171.834                heads                   1
ho_11                             40.0979                heads                   1
ho_110                            170.791                heads                   1
ho_111                            170.698                heads                   1
ho_112                            171.367                heads                   1
ho_113                            168.687                heads                   1
ho_114                            171.771                heads                   1
ho_115                            245.527                heads                   1
ho_116                            236.496                heads                   1
ho_117                             237.63                heads                   1
ho_118                            218.041                heads                   1
ho_119                            236.805                heads                   1
ho_12                             19.3256                heads                   1
ho_120                            250.561                heads                   1
ho_121                            231.944                heads                   1
ho_122                            311.561                heads                   1
ho_123                            229.146                heads                   1
ho_124                            257.824                heads                   1
ho_125                            275.661                heads                   1
ho_126                            234.976                heads                   1
ho_127                            228.281                heads                   1
ho_128                            183.661                heads                   1
ho_129                            239.099                heads                   1
ho_13                             12.3366                heads                   1
ho_130                            202.966                heads                   1
ho_131                            221.218                heads                   1
ho_132                            211.235                heads                   1
ho_133                            235.973                heads                   1
ho_134                             236.65                heads                   1
ho_135                            194.574                heads                   1
ho_136                            216.039                heads                   1
ho_137                            230.514                heads                   1
ho_138                            193.811                heads                   1
ho_139                            239.744                heads                   1
ho_14                             324.889                heads                   1
ho_140                            240.352                heads                   1
ho_141                            243.034                heads                   1
ho_142                            216.196                heads                   1
ho_143                            242.481                heads                   1
ho_144                            186.431                heads                   1
ho_145                            205.223                heads                   1
ho_146                            255.043                heads                   1
ho_147                            257.293                heads                   1
[...]
               ho_106        heads              166.460              170.041             -3.58068              1.00000
               ho_107        heads              170.016              169.434             0.582722              1.00000
               ho_108        heads              170.801              171.769            -0.967977              1.00000
               ho_109        heads              171.834              172.672            -0.837506              1.00000
                ho_11        heads              40.0979              47.3351             -7.23724              1.00000
               ho_110        heads              170.791              173.267             -2.47543              1.00000
               ho_111        heads              170.698              174.550             -3.85244              1.00000
               ho_112        heads              171.367              173.683             -2.31594              1.00000
               ho_113        heads              168.687              168.903            -0.216383              1.00000
               ho_114        heads              171.771              173.439             -1.66747              1.00000
               ho_115        heads              245.527              244.385              1.14209              1.00000
               ho_116        heads              236.496              240.430             -3.93345              1.00000
               ho_117        heads              237.630              240.026             -2.39578              1.00000
               ho_118        heads              218.041              233.488             -15.4473              1.00000
               ho_119        heads              236.805              235.252              1.55305              1.00000
                ho_12        heads              19.3256              26.4526             -7.12699              1.00000
               ho_120        heads              250.561              254.347             -3.78609              1.00000
               ho_121        heads              231.944              238.955             -7.01145              1.00000
               ho_122        heads              311.561              298.414              13.1471              1.00000
               ho_123        heads              229.146              292.165             -63.0193              1.00000
               ho_124        heads              257.824              274.137             -16.3124              1.00000
               ho_125        heads              275.661              276.345            -0.683601              1.00000
               ho_126        heads              234.976              236.203             -1.22691              1.00000
               ho_127        heads              228.281              222.610              5.67098              1.00000
               ho_128        heads              183.661              198.934             -15.2738              1.00000
               ho_129        heads              239.099              241.461             -2.36218              1.00000
                ho_13        heads              12.3366              11.8676             0.468970              1.00000
               ho_130        heads              202.966              215.858             -12.8920              1.00000
               ho_131        heads              221.218              223.105             -1.88704              1.00000
               ho_132        heads              211.235              211.207            0.0279873              1.00000
               ho_133        heads              235.973              233.931              2.04254              1.00000
               ho_134        heads              236.650              233.485              3.16461              1.00000
               ho_135        heads              194.574              215.985             -21.4109              1.00000
               ho_136        heads              216.039              217.415             -1.37636              1.00000
               ho_137        heads              230.514              232.765             -2.25085              1.00000
               ho_138        heads              193.811              216.778             -22.9677              1.00000
               ho_139        heads              239.744              253.368             -13.6242              1.00000
                ho_14        heads              324.889              326.904             -2.01493              1.00000
               ho_140        heads              240.352              248.061             -7.70849              1.00000
               ho_141        heads              243.034              242.230             0.803162              1.00000
               ho_142        heads              216.196              242.685             -26.4881              1.00000
               ho_143        heads              242.481              244.640             -2.15954              1.00000
               ho_144        heads              186.431              236.053             -49.6217              1.00000
               ho_145        heads              205.223              220.034             -14.8103              1.00000
               ho_146        heads              255.043              256.411             -1.36772              1.00000
               ho_147        heads              257.293              255.201              2.09179              1.00000
               ho_148        heads              225.667              219.682              5.98562              1.00000
               ho_149        heads              213.561              221.640             -8.07851              1.00000
                ho_15        heads              13.4950              21.6682             -8.17318              1.00000
               ho_150        heads              248.101              237.348              10.7528              1.00000
               ho_151        heads              252.737              238.224              14.5124              1.00000
               ho_152        heads              191.459              190.331              1.12832              1.00000
               ho_153        heads              185.046              182.869              2.17699              1.00000
               ho_154        heads              177.110              184.196             -7.08585              1.00000
               ho_155        heads              174.849              184.196             -9.34645              1.00000
               ho_156        heads              174.632              184.196             -9.56385              1.00000
               ho_157        heads              174.424              184.196             -9.77115              1.00000
               ho_158        heads              197.995              191.348              6.64705              1.00000
               ho_159        heads              183.859              191.348             -7.48945              1.00000
                ho_16        heads              62.0403              54.3700              7.67029              1.00000
               ho_160        heads              192.995              191.348              1.64645              1.00000
               ho_161        heads              276.432              296.938             -20.5063              1.00000
               ho_162        heads              214.526              231.788             -17.2625              1.00000
               ho_163        heads              218.267              212.109              6.15763              1.00000
               ho_164        heads              197.411              214.167             -16.7569              1.00000
               ho_165        heads              228.934              233.743             -4.80920              1.00000
               ho_166        heads              228.378              222.145              6.23311              1.00000
               ho_167        heads              265.622              273.433             -7.81104              1.00000
               ho_168        heads              275.129              275.747            -0.617543              1.00000
               ho_169        heads              290.565              289.199              1.36550              1.00000
                ho_17        heads              3.98280              9.65027             -5.66747              1.00000
               ho_170        heads              290.379              289.173              1.20608              1.00000
                ho_18        heads              24.3950              41.6155             -17.2205              1.00000
                ho_19        heads              37.4358              40.8309             -3.39510              1.00000
                 ho_2        heads              83.3997              92.5600             -9.16027              1.00000
                ho_20        heads              18.1986              20.4884             -2.28985              1.00000
                ho_21        heads              39.1015              29.0659              10.0356              1.00000
                ho_22        heads              15.4875              23.3542             -7.86672              1.00000
                ho_23        heads              14.4814              14.2739             0.207509              1.00000
                ho_24        heads              12.5924              15.8515             -3.25912              1.00000
                ho_25        heads              11.5968              15.9127             -4.31594              1.00000
                ho_26        heads              10.7190              16.0544             -5.33536              1.00000
                ho_27        heads              11.2937              16.7161             -5.42235              1.00000
                ho_28        heads              18.4356              18.2814             0.154161              1.00000
                ho_29        heads              11.4599              17.4721             -6.01222              1.00000
                 ho_3        heads              26.7286              41.7105             -14.9819              1.00000
                ho_30        heads              21.2190              25.9564             -4.73740              1.00000
                ho_31        heads              17.6493              45.3254             -27.6761              1.00000
                ho_32        heads              10.0889              41.6932             -31.6043              1.00000
                ho_33        heads              31.2621              41.5923             -10.3302              1.00000
                ho_34        heads              47.2575              41.5529              5.70457              1.00000
                ho_35        heads              39.2465              41.6642             -2.41772              1.00000
                ho_36        heads             -1.40930              10.0563             -11.4656              1.00000
                ho_37        heads              10.1445              12.2487             -2.10424              1.00000
                ho_38        heads              130.681              127.308              3.37306              1.00000
                ho_39        heads              122.097              125.373             -3.27630              1.00000
                 ho_4        heads             -4.59190              1.37120             -5.96310              1.00000
                ho_40        heads              64.1488              62.4872              1.66158              1.00000
                ho_41        heads              58.4498              60.4072             -1.95740              1.00000
                ho_42        heads              93.1612              94.5572             -1.39597              1.00000
                ho_43        heads              41.6590              46.6866             -5.02761              1.00000
                ho_44        heads              66.6429              50.6531              15.9898              1.00000
                ho_45        heads              54.8153              51.2289              3.58636              1.00000
                ho_46        heads              91.1350              86.3882              4.74679              1.00000
                ho_47        heads              100.721              101.695            -0.974119              1.00000
                ho_48        heads              303.376              276.295              27.0810              1.00000
                ho_49        heads              49.4388              51.9260             -2.48717              1.00000
                 ho_5        heads             -11.0350              2.63982             -13.6748              1.00000
                ho_50        heads              61.6086              51.6213              9.98729              1.00000
                ho_51        heads              86.1749              80.4874              5.68748              1.00000
                ho_52        heads              85.2498              85.2058            0.0440352              1.00000
                ho_53        heads              82.7974              83.6483            -0.850915              1.00000
                ho_54        heads              55.9031              57.6271             -1.72396              1.00000
                ho_55        heads              75.2073              77.5914             -2.38414              1.00000
                ho_56        heads              47.1085              51.0372             -3.92874              1.00000
                ho_57        heads              49.3317              52.2678             -2.93606              1.00000
                ho_58        heads              39.6155              43.5467             -3.93120              1.00000
                ho_59        heads              42.3267              44.2766             -1.94990              1.00000
                 ho_6        heads              65.1355              59.9753              5.16018              1.00000
                ho_60        heads              48.1654              50.8629             -2.69745              1.00000
                ho_61        heads              48.3186              52.1669             -3.84832              1.00000
                ho_62        heads              59.1367              58.1448             0.991932              1.00000
                ho_63        heads              53.5019              54.5756             -1.07370              1.00000
                ho_64        heads              313.117              338.661             -25.5446              1.00000
                ho_65        heads              138.518              144.974             -6.45583              1.00000
                ho_66        heads              337.486              334.900              2.58543              1.00000
                ho_67        heads              147.631              150.870             -3.23966              1.00000
                ho_68        heads              149.403              145.379              4.02394              1.00000
                ho_69        heads              140.988              145.164             -4.17511              1.00000
                 ho_7        heads              173.466              158.297              15.1694              1.00000
                ho_70        heads              140.142              145.164             -5.02131              1.00000
                ho_71        heads              535.275              551.200             -15.9248              1.00000
                ho_72        heads              228.722              243.568             -14.8465              1.00000
                ho_73        heads              241.856              250.005             -8.14913              1.00000
                ho_74        heads              216.441              221.384             -4.94298              1.00000
                ho_75        heads              221.086              222.379             -1.29312              1.00000
                ho_76        heads              252.210              242.571              9.63908              1.00000
                ho_77        heads              229.772              228.480              1.29228              1.00000
                ho_78        heads              231.815              226.461              5.35374              1.00000
                ho_79        heads              226.911              225.213              1.69787              1.00000
                 ho_8        heads              45.9676              51.3653             -5.39770              1.00000
                ho_80        heads              222.215              241.665             -19.4495              1.00000
                ho_81        heads              205.057              218.152             -13.0956              1.00000
                ho_82        heads              199.295              214.070             -14.7758              1.00000
                ho_83        heads              194.966              218.116             -23.1508              1.00000
                ho_84        heads              196.049              201.978             -5.92904              1.00000
                ho_85        heads              167.548              196.812             -29.2643              1.00000
                ho_86        heads              225.424              223.289              2.13528              1.00000
                ho_87        heads              230.070              224.922              5.14811              1.00000
                ho_88        heads              227.843              226.679              1.16407              1.00000
                ho_89        heads              227.538              228.608             -1.06999              1.00000
                 ho_9        heads              49.3246              48.6046             0.719993              1.00000
                ho_90        heads              146.648              194.563             -47.9150              1.00000
                ho_91        heads              209.990              211.728             -1.73823              1.00000
                ho_92        heads              156.622              191.460             -34.8383              1.00000
                ho_93        heads              152.277              204.846             -52.5683              1.00000
                ho_94        heads              190.058              183.109              6.94901              1.00000
                ho_95        heads              162.931              163.514            -0.583145              1.00000
                ho_96        heads              113.143              146.054             -32.9110              1.00000
                ho_97        heads              158.129              157.431             0.697865              1.00000
                ho_98        heads              152.984              158.932             -5.94757              1.00000
                ho_99        heads              164.834              161.038              3.79573              1.00000
               pmpchg       pmpchg             0.000000              16212.1             -16212.1             0.000000

Final composite objective function 
  Final phi                                           Total : 29258.2
  Contribution to phi from observation group       "basflo" : 13.5940
  Contribution to phi from observation group        "ggflo" : 0.000000
  Contribution to phi from observation group        "heads" : 29244.6
  Contribution to phi from observation group       "pmpchg" : 0.000000


Number of forward model runs performed during optimization: 1


pestpp-glm analysis complete...
started at 12/23/21 07:46:48
finished at 12/23/21 07:50:10
took 3.36667 minutes
