GSFLOW MODFLOW main             gsflow_modflow      2021-02-18
UZF-NWT Package                 gwf2uzf1_NWT        2020-12-28
SFR-NWT Package                 gwf2sfr7_NWT        2020-09-30
LAK-NWT Package                 gwf2lak7_NWT        2020-09-30
GSFLOW MODFLOW main             gsflow_modflow      2021-02-18
UZF-NWT Package                 gwf2uzf1_NWT        2020-12-28
SFR-NWT Package                 gwf2sfr7_NWT        2020-09-30
LAK-NWT Package                 gwf2lak7_NWT        2020-09-30
GSFLOW MODFLOW main             gsflow_modflow      2021-02-18
UZF-NWT Package                 gwf2uzf1_NWT        2020-12-28
SFR-NWT Package                 gwf2sfr7_NWT        2020-09-30
LAK-NWT Package                 gwf2lak7_NWT        2020-09-30
GSFLOW MODFLOW main             gsflow_modflow      2021-02-18
UZF-NWT Package                 gwf2uzf1_NWT        2020-12-28
SFR-NWT Package                 gwf2sfr7_NWT        2020-09-30
LAK-NWT Package                 gwf2lak7_NWT        2020-09-30
GSFLOW MODFLOW main             gsflow_modflow      2021-02-18
UZF-NWT Package                 gwf2uzf1_NWT        2020-12-28
SFR-NWT Package                 gwf2sfr7_NWT        2020-09-30
LAK-NWT Package                 gwf2lak7_NWT        2020-09-30
GSFLOW MODFLOW main             gsflow_modflow      2021-02-18
UZF-NWT Package                 gwf2uzf1_NWT        2020-12-28
SFR-NWT Package                 gwf2sfr7_NWT        2020-09-30
LAK-NWT Package                 gwf2lak7_NWT        2020-09-30
GSFLOW MODFLOW main             gsflow_modflow      2021-02-18
UZF-NWT Package                 gwf2uzf1_NWT        2020-12-28
SFR-NWT Package                 gwf2sfr7_NWT        2020-09-30
LAK-NWT Package                 gwf2lak7_NWT        2020-09-30
GSFLOW MODFLOW main             gsflow_modflow      2021-02-18
UZF-NWT Package                 gwf2uzf1_NWT        2020-12-28
SFR-NWT Package                 gwf2sfr7_NWT        2020-09-30
LAK-NWT Package                 gwf2lak7_NWT        2020-09-30
GSFLOW MODFLOW main             gsflow_modflow      2021-02-18
UZF-NWT Package                 gwf2uzf1_NWT        2020-12-28
SFR-NWT Package                 gwf2sfr7_NWT        2020-09-30
LAK-NWT Package                 gwf2lak7_NWT        2020-09-30
GSFLOW MODFLOW main             gsflow_modflow      2021-02-18
UZF-NWT Package                 gwf2uzf1_NWT        2020-12-28
SFR-NWT Package                 gwf2sfr7_NWT        2020-09-30
LAK-NWT Package                 gwf2lak7_NWT        2020-09-30
GSFLOW MODFLOW main             gsflow_modflow      2021-02-18
UZF-NWT Package                 gwf2uzf1_NWT        2020-12-28
SFR-NWT Package                 gwf2sfr7_NWT        2020-09-30
LAK-NWT Package                 gwf2lak7_NWT        2020-09-30
GSFLOW MODFLOW main             gsflow_modflow      2021-02-18
UZF-NWT Package                 gwf2uzf1_NWT        2020-12-28
SFR-NWT Package                 gwf2sfr7_NWT        2020-09-30
LAK-NWT Package                 gwf2lak7_NWT        2020-09-30
GSFLOW MODFLOW main             gsflow_modflow      2021-02-18
UZF-NWT Package                 gwf2uzf1_NWT        2020-12-28
SFR-NWT Package                 gwf2sfr7_NWT        2020-09-30
LAK-NWT Package                 gwf2lak7_NWT        2020-09-30
GSFLOW MODFLOW main             gsflow_modflow      2021-02-18
UZF-NWT Package                 gwf2uzf1_NWT        2020-12-28
SFR-NWT Package                 gwf2sfr7_NWT        2020-09-30
LAK-NWT Package                 gwf2lak7_NWT        2020-09-30
GSFLOW MODFLOW main             gsflow_modflow      2021-02-18
UZF-NWT Package                 gwf2uzf1_NWT        2020-12-28
SFR-NWT Package                 gwf2sfr7_NWT        2020-09-30
LAK-NWT Package                 gwf2lak7_NWT        2020-09-30
GSFLOW MODFLOW main             gsflow_modflow      2021-02-18
UZF-NWT Package                 gwf2uzf1_NWT        2020-12-28
SFR-NWT Package                 gwf2sfr7_NWT        2020-09-30
LAK-NWT Package                 gwf2lak7_NWT        2020-09-30
GSFLOW MODFLOW main             gsflow_modflow      2021-02-18
UZF-NWT Package                 gwf2uzf1_NWT        2020-12-28
SFR-NWT Package                 gwf2sfr7_NWT        2020-09-30
LAK-NWT Package                 gwf2lak7_NWT        2020-09-30
GSFLOW MODFLOW main             gsflow_modflow      2021-02-18
UZF-NWT Package                 gwf2uzf1_NWT        2020-12-28
SFR-NWT Package                 gwf2sfr7_NWT        2020-09-30
LAK-NWT Package                 gwf2lak7_NWT        2020-09-30
GSFLOW MODFLOW main             gsflow_modflow      2021-02-18
UZF-NWT Package                 gwf2uzf1_NWT        2020-12-28
SFR-NWT Package                 gwf2sfr7_NWT        2020-09-30
LAK-NWT Package                 gwf2lak7_NWT        2020-09-30
GSFLOW MODFLOW main             gsflow_modflow      2021-02-18
UZF-NWT Package                 gwf2uzf1_NWT        2020-12-28
SFR-NWT Package                 gwf2sfr7_NWT        2020-09-30
LAK-NWT Package                 gwf2lak7_NWT        2020-09-30
GSFLOW MODFLOW main             gsflow_modflow      2021-02-18
UZF-NWT Package                 gwf2uzf1_NWT        2020-12-28
SFR-NWT Package                 gwf2sfr7_NWT        2020-09-30
LAK-NWT Package                 gwf2lak7_NWT        2020-09-30
GSFLOW MODFLOW main             gsflow_modflow      2021-02-18
UZF-NWT Package                 gwf2uzf1_NWT        2020-12-28
SFR-NWT Package                 gwf2sfr7_NWT        2020-09-30
LAK-NWT Package                 gwf2lak7_NWT        2020-09-30
GSFLOW MODFLOW main             gsflow_modflow      2021-02-18
UZF-NWT Package                 gwf2uzf1_NWT        2020-12-28
SFR-NWT Package                 gwf2sfr7_NWT        2020-09-30
LAK-NWT Package                 gwf2lak7_NWT        2020-09-30
GSFLOW MODFLOW main             gsflow_modflow      2021-02-18
UZF-NWT Package                 gwf2uzf1_NWT        2020-12-28
SFR-NWT Package                 gwf2sfr7_NWT        2020-09-30
LAK-NWT Package                 gwf2lak7_NWT        2020-09-30
GSFLOW MODFLOW main             gsflow_modflow      2021-02-18
UZF-NWT Package                 gwf2uzf1_NWT        2020-12-28
SFR-NWT Package                 gwf2sfr7_NWT        2020-09-30
LAK-NWT Package                 gwf2lak7_NWT        2020-09-30
GSFLOW MODFLOW main             gsflow_modflow      2021-02-18
UZF-NWT Package                 gwf2uzf1_NWT        2020-12-28
SFR-NWT Package                 gwf2sfr7_NWT        2020-09-30
LAK-NWT Package                 gwf2lak7_NWT        2020-09-30
GSFLOW MODFLOW main             gsflow_modflow      2021-02-18
UZF-NWT Package                 gwf2uzf1_NWT        2020-12-28
SFR-NWT Package                 gwf2sfr7_NWT        2020-09-30
LAK-NWT Package                 gwf2lak7_NWT        2020-09-30
GSFLOW MODFLOW main             gsflow_modflow      2021-02-18
UZF-NWT Package                 gwf2uzf1_NWT        2020-12-28
SFR-NWT Package                 gwf2sfr7_NWT        2020-09-30
LAK-NWT Package                 gwf2lak7_NWT        2020-09-30
GSFLOW MODFLOW main             gsflow_modflow      2021-02-18
UZF-NWT Package                 gwf2uzf1_NWT        2020-12-28
SFR-NWT Package                 gwf2sfr7_NWT        2020-09-30
LAK-NWT Package                 gwf2lak7_NWT        2020-09-30
GSFLOW MODFLOW main             gsflow_modflow      2021-02-18
UZF-NWT Package                 gwf2uzf1_NWT        2020-12-28
SFR-NWT Package                 gwf2sfr7_NWT        2020-09-30
LAK-NWT Package                 gwf2lak7_NWT        2020-09-30
GSFLOW MODFLOW main             gsflow_modflow      2021-02-18
UZF-NWT Package                 gwf2uzf1_NWT        2020-12-28
SFR-NWT Package                 gwf2sfr7_NWT        2020-09-30
LAK-NWT Package                 gwf2lak7_NWT        2020-09-30
GSFLOW MODFLOW main             gsflow_modflow      2021-02-18
UZF-NWT Package                 gwf2uzf1_NWT        2020-12-28
SFR-NWT Package                 gwf2sfr7_NWT        2020-09-30
LAK-NWT Package                 gwf2lak7_NWT        2020-09-30
GSFLOW MODFLOW main             gsflow_modflow      2021-02-18
UZF-NWT Package                 gwf2uzf1_NWT        2020-12-28
SFR-NWT Package                 gwf2sfr7_NWT        2020-09-30
LAK-NWT Package                 gwf2lak7_NWT        2020-09-30
GSFLOW MODFLOW main             gsflow_modflow      2021-02-18
UZF-NWT Package                 gwf2uzf1_NWT        2020-12-28
SFR-NWT Package                 gwf2sfr7_NWT        2020-09-30
LAK-NWT Package                 gwf2lak7_NWT        2020-09-30
GSFLOW MODFLOW main             gsflow_modflow      2021-02-18
UZF-NWT Package                 gwf2uzf1_NWT        2020-12-28
SFR-NWT Package                 gwf2sfr7_NWT        2020-09-30
LAK-NWT Package                 gwf2lak7_NWT        2020-09-30
GSFLOW MODFLOW main             gsflow_modflow      2021-02-18
UZF-NWT Package                 gwf2uzf1_NWT        2020-12-28
SFR-NWT Package                 gwf2sfr7_NWT        2020-09-30
LAK-NWT Package                 gwf2lak7_NWT        2020-09-30
GSFLOW MODFLOW main             gsflow_modflow      2021-02-18
UZF-NWT Package                 gwf2uzf1_NWT        2020-12-28
SFR-NWT Package                 gwf2sfr7_NWT        2020-09-30
LAK-NWT Package                 gwf2lak7_NWT        2020-09-30
GSFLOW MODFLOW main             gsflow_modflow      2021-02-18
UZF-NWT Package                 gwf2uzf1_NWT        2020-12-28
SFR-NWT Package                 gwf2sfr7_NWT        2020-09-30
LAK-NWT Package                 gwf2lak7_NWT        2020-09-30
GSFLOW MODFLOW main             gsflow_modflow      2021-02-18
UZF-NWT Package                 gwf2uzf1_NWT        2020-12-28
SFR-NWT Package                 gwf2sfr7_NWT        2020-09-30
LAK-NWT Package                 gwf2lak7_NWT        2020-09-30
GSFLOW MODFLOW main             gsflow_modflow      2021-02-18
UZF-NWT Package                 gwf2uzf1_NWT        2020-12-28
SFR-NWT Package                 gwf2sfr7_NWT        2020-09-30
LAK-NWT Package                 gwf2lak7_NWT        2020-09-30
GSFLOW MODFLOW main             gsflow_modflow      2021-02-18
UZF-NWT Package                 gwf2uzf1_NWT        2020-12-28
SFR-NWT Package                 gwf2sfr7_NWT        2020-09-30
LAK-NWT Package                 gwf2lak7_NWT        2020-09-30
GSFLOW MODFLOW main             gsflow_modflow      2021-02-18
UZF-NWT Package                 gwf2uzf1_NWT        2020-12-28
SFR-NWT Package                 gwf2sfr7_NWT        2020-09-30
LAK-NWT Package                 gwf2lak7_NWT        2020-09-30
GSFLOW MODFLOW main             gsflow_modflow      2021-02-18
UZF-NWT Package                 gwf2uzf1_NWT        2020-12-28
SFR-NWT Package                 gwf2sfr7_NWT        2020-09-30
LAK-NWT Package                 gwf2lak7_NWT        2020-09-30
GSFLOW MODFLOW main             gsflow_modflow      2021-02-18
UZF-NWT Package                 gwf2uzf1_NWT        2020-12-28
SFR-NWT Package                 gwf2sfr7_NWT        2020-09-30
LAK-NWT Package                 gwf2lak7_NWT        2020-09-30
GSFLOW MODFLOW main             gsflow_modflow      2021-02-18
UZF-NWT Package                 gwf2uzf1_NWT        2020-12-28
SFR-NWT Package                 gwf2sfr7_NWT        2020-09-30
LAK-NWT Package                 gwf2lak7_NWT        2020-09-30
GSFLOW MODFLOW main             gsflow_modflow      2021-02-18
UZF-NWT Package                 gwf2uzf1_NWT        2020-12-28
SFR-NWT Package                 gwf2sfr7_NWT        2020-09-30
LAK-NWT Package                 gwf2lak7_NWT        2020-09-30
GSFLOW MODFLOW main             gsflow_modflow      2021-02-18
UZF-NWT Package                 gwf2uzf1_NWT        2020-12-28
SFR-NWT Package                 gwf2sfr7_NWT        2020-09-30
LAK-NWT Package                 gwf2lak7_NWT        2020-09-30
GSFLOW MODFLOW main             gsflow_modflow      2021-02-18
UZF-NWT Package                 gwf2uzf1_NWT        2020-12-28
SFR-NWT Package                 gwf2sfr7_NWT        2020-09-30
LAK-NWT Package                 gwf2lak7_NWT        2020-09-30
GSFLOW MODFLOW main             gsflow_modflow      2021-02-18
UZF-NWT Package                 gwf2uzf1_NWT        2020-12-28
SFR-NWT Package                 gwf2sfr7_NWT        2020-09-30
LAK-NWT Package                 gwf2lak7_NWT        2020-09-30
GSFLOW MODFLOW main             gsflow_modflow      2021-02-18
UZF-NWT Package                 gwf2uzf1_NWT        2020-12-28
SFR-NWT Package                 gwf2sfr7_NWT        2020-09-30
LAK-NWT Package                 gwf2lak7_NWT        2020-09-30
GSFLOW MODFLOW main             gsflow_modflow      2021-02-18
UZF-NWT Package                 gwf2uzf1_NWT        2020-12-28
SFR-NWT Package                 gwf2sfr7_NWT        2020-09-30
LAK-NWT Package                 gwf2lak7_NWT        2020-09-30
GSFLOW MODFLOW main             gsflow_modflow      2021-02-18
UZF-NWT Package                 gwf2uzf1_NWT        2020-12-28
SFR-NWT Package                 gwf2sfr7_NWT        2020-09-30
LAK-NWT Package                 gwf2lak7_NWT        2020-09-30
GSFLOW MODFLOW main             gsflow_modflow      2021-02-18
UZF-NWT Package                 gwf2uzf1_NWT        2020-12-28
SFR-NWT Package                 gwf2sfr7_NWT        2020-09-30
LAK-NWT Package                 gwf2lak7_NWT        2020-09-30
GSFLOW MODFLOW main             gsflow_modflow      2021-02-18
UZF-NWT Package                 gwf2uzf1_NWT        2020-12-28
SFR-NWT Package                 gwf2sfr7_NWT        2020-09-30
LAK-NWT Package                 gwf2lak7_NWT        2020-09-30
GSFLOW MODFLOW main             gsflow_modflow      2021-02-18
UZF-NWT Package                 gwf2uzf1_NWT        2020-12-28
SFR-NWT Package                 gwf2sfr7_NWT        2020-09-30
LAK-NWT Package                 gwf2lak7_NWT        2020-09-30
GSFLOW MODFLOW main             gsflow_modflow      2021-02-18
UZF-NWT Package                 gwf2uzf1_NWT        2020-12-28
SFR-NWT Package                 gwf2sfr7_NWT        2020-09-30
LAK-NWT Package                 gwf2lak7_NWT        2020-09-30
GSFLOW MODFLOW main             gsflow_modflow      2021-02-18
UZF-NWT Package                 gwf2uzf1_NWT        2020-12-28
SFR-NWT Package                 gwf2sfr7_NWT        2020-09-30
LAK-NWT Package                 gwf2lak7_NWT        2020-09-30
GSFLOW MODFLOW main             gsflow_modflow      2021-02-18
UZF-NWT Package                 gwf2uzf1_NWT        2020-12-28
SFR-NWT Package                 gwf2sfr7_NWT        2020-09-30
LAK-NWT Package                 gwf2lak7_NWT        2020-09-30
GSFLOW MODFLOW main             gsflow_modflow      2021-02-18
UZF-NWT Package                 gwf2uzf1_NWT        2020-12-28
SFR-NWT Package                 gwf2sfr7_NWT        2020-09-30
LAK-NWT Package                 gwf2lak7_NWT        2020-09-30
GSFLOW MODFLOW main             gsflow_modflow      2021-02-18
UZF-NWT Package                 gwf2uzf1_NWT        2020-12-28
SFR-NWT Package                 gwf2sfr7_NWT        2020-09-30
LAK-NWT Package                 gwf2lak7_NWT        2020-09-30
GSFLOW MODFLOW main             gsflow_modflow      2021-02-18
UZF-NWT Package                 gwf2uzf1_NWT        2020-12-28
SFR-NWT Package                 gwf2sfr7_NWT        2020-09-30
LAK-NWT Package                 gwf2lak7_NWT        2020-09-30
GSFLOW MODFLOW main             gsflow_modflow      2021-02-18
UZF-NWT Package                 gwf2uzf1_NWT        2020-12-28
SFR-NWT Package                 gwf2sfr7_NWT        2020-09-30
LAK-NWT Package                 gwf2lak7_NWT        2020-09-30
GSFLOW MODFLOW main             gsflow_modflow      2021-02-18
UZF-NWT Package                 gwf2uzf1_NWT        2020-12-28
SFR-NWT Package                 gwf2sfr7_NWT        2020-09-30
LAK-NWT Package                 gwf2lak7_NWT        2020-09-30
GSFLOW MODFLOW main             gsflow_modflow      2021-02-18
UZF-NWT Package                 gwf2uzf1_NWT        2020-12-28
SFR-NWT Package                 gwf2sfr7_NWT        2020-09-30
LAK-NWT Package                 gwf2lak7_NWT        2020-09-30
GSFLOW MODFLOW main             gsflow_modflow      2021-02-18
UZF-NWT Package                 gwf2uzf1_NWT        2020-12-28
SFR-NWT Package                 gwf2sfr7_NWT        2020-09-30
LAK-NWT Package                 gwf2lak7_NWT        2020-09-30
GSFLOW MODFLOW main             gsflow_modflow      2021-02-18
UZF-NWT Package                 gwf2uzf1_NWT        2020-12-28
SFR-NWT Package                 gwf2sfr7_NWT        2020-09-30
LAK-NWT Package                 gwf2lak7_NWT        2020-09-30
GSFLOW MODFLOW main             gsflow_modflow      2021-02-18
UZF-NWT Package                 gwf2uzf1_NWT        2020-12-28
SFR-NWT Package                 gwf2sfr7_NWT        2020-09-30
LAK-NWT Package                 gwf2lak7_NWT        2020-09-30
GSFLOW MODFLOW main             gsflow_modflow      2021-02-18
UZF-NWT Package                 gwf2uzf1_NWT        2020-12-28
SFR-NWT Package                 gwf2sfr7_NWT        2020-09-30
LAK-NWT Package                 gwf2lak7_NWT        2020-09-30
GSFLOW MODFLOW main             gsflow_modflow      2021-02-18
UZF-NWT Package                 gwf2uzf1_NWT        2020-12-28
SFR-NWT Package                 gwf2sfr7_NWT        2020-09-30
LAK-NWT Package                 gwf2lak7_NWT        2020-09-30
GSFLOW MODFLOW main             gsflow_modflow      2021-02-18
UZF-NWT Package                 gwf2uzf1_NWT        2020-12-28
SFR-NWT Package                 gwf2sfr7_NWT        2020-09-30
LAK-NWT Package                 gwf2lak7_NWT        2020-09-30
GSFLOW MODFLOW main             gsflow_modflow      2021-02-18
UZF-NWT Package                 gwf2uzf1_NWT        2020-12-28
SFR-NWT Package                 gwf2sfr7_NWT        2020-09-30
LAK-NWT Package                 gwf2lak7_NWT        2020-09-30
GSFLOW MODFLOW main             gsflow_modflow      2021-02-18
UZF-NWT Package                 gwf2uzf1_NWT        2020-12-28
SFR-NWT Package                 gwf2sfr7_NWT        2020-09-30
LAK-NWT Package                 gwf2lak7_NWT        2020-09-30
GSFLOW MODFLOW main             gsflow_modflow      2021-02-18
UZF-NWT Package                 gwf2uzf1_NWT        2020-12-28
SFR-NWT Package                 gwf2sfr7_NWT        2020-09-30
LAK-NWT Package                 gwf2lak7_NWT        2020-09-30
GSFLOW MODFLOW main             gsflow_modflow      2021-02-18
UZF-NWT Package                 gwf2uzf1_NWT        2020-12-28
SFR-NWT Package                 gwf2sfr7_NWT        2020-09-30
LAK-NWT Package                 gwf2lak7_NWT        2020-09-30
GSFLOW MODFLOW main             gsflow_modflow      2021-02-18
UZF-NWT Package                 gwf2uzf1_NWT        2020-12-28
SFR-NWT Package                 gwf2sfr7_NWT        2020-09-30
LAK-NWT Package                 gwf2lak7_NWT        2020-09-30
GSFLOW MODFLOW main             gsflow_modflow      2021-02-18
UZF-NWT Package                 gwf2uzf1_NWT        2020-12-28
SFR-NWT Package                 gwf2sfr7_NWT        2020-09-30
LAK-NWT Package                 gwf2lak7_NWT        2020-09-30
GSFLOW MODFLOW main             gsflow_modflow      2021-02-18
UZF-NWT Package                 gwf2uzf1_NWT        2020-12-28
SFR-NWT Package                 gwf2sfr7_NWT        2020-09-30
LAK-NWT Package                 gwf2lak7_NWT        2020-09-30
GSFLOW MODFLOW main             gsflow_modflow      2021-02-18
UZF-NWT Package                 gwf2uzf1_NWT        2020-12-28
SFR-NWT Package                 gwf2sfr7_NWT        2020-09-30
LAK-NWT Package                 gwf2lak7_NWT        2020-09-30
GSFLOW MODFLOW main             gsflow_modflow      2021-02-18
UZF-NWT Package                 gwf2uzf1_NWT        2020-12-28
SFR-NWT Package                 gwf2sfr7_NWT        2020-09-30
LAK-NWT Package                 gwf2lak7_NWT        2020-09-30
GSFLOW MODFLOW main             gsflow_modflow      2021-02-18
UZF-NWT Package                 gwf2uzf1_NWT        2020-12-28
SFR-NWT Package                 gwf2sfr7_NWT        2020-09-30
LAK-NWT Package                 gwf2lak7_NWT        2020-09-30
GSFLOW MODFLOW main             gsflow_modflow      2021-02-18
UZF-NWT Package                 gwf2uzf1_NWT        2020-12-28
SFR-NWT Package                 gwf2sfr7_NWT        2020-09-30
LAK-NWT Package                 gwf2lak7_NWT        2020-09-30
GSFLOW MODFLOW main             gsflow_modflow      2021-02-18
UZF-NWT Package                 gwf2uzf1_NWT        2020-12-28
SFR-NWT Package                 gwf2sfr7_NWT        2020-09-30
LAK-NWT Package                 gwf2lak7_NWT        2020-09-30
GSFLOW MODFLOW main             gsflow_modflow      2021-02-18
UZF-NWT Package                 gwf2uzf1_NWT        2020-12-28
SFR-NWT Package                 gwf2sfr7_NWT        2020-09-30
LAK-NWT Package                 gwf2lak7_NWT        2020-09-30
GSFLOW MODFLOW main             gsflow_modflow      2021-02-18
UZF-NWT Package                 gwf2uzf1_NWT        2020-12-28
SFR-NWT Package                 gwf2sfr7_NWT        2020-09-30
LAK-NWT Package                 gwf2lak7_NWT        2020-09-30
GSFLOW MODFLOW main             gsflow_modflow      2021-02-18
UZF-NWT Package                 gwf2uzf1_NWT        2020-12-28
SFR-NWT Package                 gwf2sfr7_NWT        2020-09-30
LAK-NWT Package                 gwf2lak7_NWT        2020-09-30
GSFLOW MODFLOW main             gsflow_modflow      2021-02-18
UZF-NWT Package                 gwf2uzf1_NWT        2020-12-28
SFR-NWT Package                 gwf2sfr7_NWT        2020-09-30
LAK-NWT Package                 gwf2lak7_NWT        2020-09-30
GSFLOW MODFLOW main             gsflow_modflow      2021-02-18
UZF-NWT Package                 gwf2uzf1_NWT        2020-12-28
SFR-NWT Package                 gwf2sfr7_NWT        2020-09-30
LAK-NWT Package                 gwf2lak7_NWT        2020-09-30
GSFLOW MODFLOW main             gsflow_modflow      2021-02-18
UZF-NWT Package                 gwf2uzf1_NWT        2020-12-28
SFR-NWT Package                 gwf2sfr7_NWT        2020-09-30
LAK-NWT Package                 gwf2lak7_NWT        2020-09-30
GSFLOW MODFLOW main             gsflow_modflow      2021-02-18
UZF-NWT Package                 gwf2uzf1_NWT        2020-12-28
SFR-NWT Package                 gwf2sfr7_NWT        2020-09-30
LAK-NWT Package                 gwf2lak7_NWT        2020-09-30
GSFLOW MODFLOW main             gsflow_modflow      2021-02-18
UZF-NWT Package                 gwf2uzf1_NWT        2020-12-28
SFR-NWT Package                 gwf2sfr7_NWT        2020-09-30
LAK-NWT Package                 gwf2lak7_NWT        2020-09-30
GSFLOW MODFLOW main             gsflow_modflow      2021-02-18
UZF-NWT Package                 gwf2uzf1_NWT        2020-12-28
SFR-NWT Package                 gwf2sfr7_NWT        2020-09-30
LAK-NWT Package                 gwf2lak7_NWT        2020-09-30
GSFLOW MODFLOW main             gsflow_modflow      2021-02-18
UZF-NWT Package                 gwf2uzf1_NWT        2020-12-28
SFR-NWT Package                 gwf2sfr7_NWT        2020-09-30
LAK-NWT Package                 gwf2lak7_NWT        2020-09-30
GSFLOW MODFLOW main             gsflow_modflow      2021-02-18
UZF-NWT Package                 gwf2uzf1_NWT        2020-12-28
SFR-NWT Package                 gwf2sfr7_NWT        2020-09-30
LAK-NWT Package                 gwf2lak7_NWT        2020-09-30
GSFLOW MODFLOW main             gsflow_modflow      2021-02-18
UZF-NWT Package                 gwf2uzf1_NWT        2020-12-28
SFR-NWT Package                 gwf2sfr7_NWT        2020-09-30
LAK-NWT Package                 gwf2lak7_NWT        2020-09-30
GSFLOW MODFLOW main             gsflow_modflow      2021-02-18
UZF-NWT Package                 gwf2uzf1_NWT        2020-12-28
SFR-NWT Package                 gwf2sfr7_NWT        2020-09-30
LAK-NWT Package                 gwf2lak7_NWT        2020-09-30
GSFLOW MODFLOW main             gsflow_modflow      2021-02-18
UZF-NWT Package                 gwf2uzf1_NWT        2020-12-28
SFR-NWT Package                 gwf2sfr7_NWT        2020-09-30
LAK-NWT Package                 gwf2lak7_NWT        2020-09-30
GSFLOW MODFLOW main             gsflow_modflow      2021-02-18
UZF-NWT Package                 gwf2uzf1_NWT        2020-12-28
SFR-NWT Package                 gwf2sfr7_NWT        2020-09-30
LAK-NWT Package                 gwf2lak7_NWT        2020-09-30
GSFLOW MODFLOW main             gsflow_modflow      2021-02-18
UZF-NWT Package                 gwf2uzf1_NWT        2020-12-28
SFR-NWT Package                 gwf2sfr7_NWT        2020-09-30
LAK-NWT Package                 gwf2lak7_NWT        2020-09-30
GSFLOW MODFLOW main             gsflow_modflow      2021-02-18
UZF-NWT Package                 gwf2uzf1_NWT        2020-12-28
SFR-NWT Package                 gwf2sfr7_NWT        2020-09-30
LAK-NWT Package                 gwf2lak7_NWT        2020-09-30
GSFLOW MODFLOW main             gsflow_modflow      2021-02-18
UZF-NWT Package                 gwf2uzf1_NWT        2020-12-28
SFR-NWT Package                 gwf2sfr7_NWT        2020-09-30
LAK-NWT Package                 gwf2lak7_NWT        2020-09-30
GSFLOW MODFLOW main             gsflow_modflow      2021-02-18
UZF-NWT Package                 gwf2uzf1_NWT        2020-12-28
SFR-NWT Package                 gwf2sfr7_NWT        2020-09-30
LAK-NWT Package                 gwf2lak7_NWT        2020-09-30
GSFLOW MODFLOW main             gsflow_modflow      2021-02-18
UZF-NWT Package                 gwf2uzf1_NWT        2020-12-28
SFR-NWT Package                 gwf2sfr7_NWT        2020-09-30
LAK-NWT Package                 gwf2lak7_NWT        2020-09-30
GSFLOW MODFLOW main             gsflow_modflow      2021-02-18
UZF-NWT Package                 gwf2uzf1_NWT        2020-12-28
SFR-NWT Package                 gwf2sfr7_NWT        2020-09-30
LAK-NWT Package                 gwf2lak7_NWT        2020-09-30
GSFLOW MODFLOW main             gsflow_modflow      2021-02-18
UZF-NWT Package                 gwf2uzf1_NWT        2020-12-28
SFR-NWT Package                 gwf2sfr7_NWT        2020-09-30
LAK-NWT Package                 gwf2lak7_NWT        2020-09-30
GSFLOW MODFLOW main             gsflow_modflow      2021-02-18
UZF-NWT Package                 gwf2uzf1_NWT        2020-12-28
SFR-NWT Package                 gwf2sfr7_NWT        2020-09-30
LAK-NWT Package                 gwf2lak7_NWT        2020-09-30
GSFLOW MODFLOW main             gsflow_modflow      2021-02-18
UZF-NWT Package                 gwf2uzf1_NWT        2020-12-28
SFR-NWT Package                 gwf2sfr7_NWT        2020-09-30
LAK-NWT Package                 gwf2lak7_NWT        2020-09-30
GSFLOW MODFLOW main             gsflow_modflow      2021-02-18
UZF-NWT Package                 gwf2uzf1_NWT        2020-12-28
SFR-NWT Package                 gwf2sfr7_NWT        2020-09-30
LAK-NWT Package                 gwf2lak7_NWT        2020-09-30
GSFLOW MODFLOW main             gsflow_modflow      2021-02-18
UZF-NWT Package                 gwf2uzf1_NWT        2020-12-28
SFR-NWT Package                 gwf2sfr7_NWT        2020-09-30
LAK-NWT Package                 gwf2lak7_NWT        2020-09-30
GSFLOW MODFLOW main             gsflow_modflow      2021-02-18
UZF-NWT Package                 gwf2uzf1_NWT        2020-12-28
SFR-NWT Package                 gwf2sfr7_NWT        2020-09-30
LAK-NWT Package                 gwf2lak7_NWT        2020-09-30
GSFLOW MODFLOW main             gsflow_modflow      2021-02-18
UZF-NWT Package                 gwf2uzf1_NWT        2020-12-28
SFR-NWT Package                 gwf2sfr7_NWT        2020-09-30
LAK-NWT Package                 gwf2lak7_NWT        2020-09-30
GSFLOW MODFLOW main             gsflow_modflow      2021-02-18
UZF-NWT Package                 gwf2uzf1_NWT        2020-12-28
SFR-NWT Package                 gwf2sfr7_NWT        2020-09-30
LAK-NWT Package                 gwf2lak7_NWT        2020-09-30
GSFLOW MODFLOW main             gsflow_modflow      2021-02-18
UZF-NWT Package                 gwf2uzf1_NWT        2020-12-28
SFR-NWT Package                 gwf2sfr7_NWT        2020-09-30
LAK-NWT Package                 gwf2lak7_NWT        2020-09-30
GSFLOW MODFLOW main             gsflow_modflow      2021-02-18
UZF-NWT Package                 gwf2uzf1_NWT        2020-12-28
SFR-NWT Package                 gwf2sfr7_NWT        2020-09-30
LAK-NWT Package                 gwf2lak7_NWT        2020-09-30
GSFLOW MODFLOW main             gsflow_modflow      2021-02-18
UZF-NWT Package                 gwf2uzf1_NWT        2020-12-28
SFR-NWT Package                 gwf2sfr7_NWT        2020-09-30
LAK-NWT Package                 gwf2lak7_NWT        2020-09-30
GSFLOW MODFLOW main             gsflow_modflow      2021-02-18
UZF-NWT Package                 gwf2uzf1_NWT        2020-12-28
SFR-NWT Package                 gwf2sfr7_NWT        2020-09-30
LAK-NWT Package                 gwf2lak7_NWT        2020-09-30
GSFLOW MODFLOW main             gsflow_modflow      2021-02-18
UZF-NWT Package                 gwf2uzf1_NWT        2020-12-28
SFR-NWT Package                 gwf2sfr7_NWT        2020-09-30
LAK-NWT Package                 gwf2lak7_NWT        2020-09-30
GSFLOW MODFLOW main             gsflow_modflow      2021-02-18
UZF-NWT Package                 gwf2uzf1_NWT        2020-12-28
SFR-NWT Package                 gwf2sfr7_NWT        2020-09-30
LAK-NWT Package                 gwf2lak7_NWT        2020-09-30
GSFLOW MODFLOW main             gsflow_modflow      2021-02-18
UZF-NWT Package                 gwf2uzf1_NWT        2020-12-28
SFR-NWT Package                 gwf2sfr7_NWT        2020-09-30
LAK-NWT Package                 gwf2lak7_NWT        2020-09-30
GSFLOW MODFLOW main             gsflow_modflow      2021-02-18
UZF-NWT Package                 gwf2uzf1_NWT        2020-12-28
SFR-NWT Package                 gwf2sfr7_NWT        2020-09-30
LAK-NWT Package                 gwf2lak7_NWT        2020-09-30
