                                  MODFLOW-NWT-SWR1 
      U.S. GEOLOGICAL SURVEY MODULAR FINITE-DIFFERENCE GROUNDWATER-FLOW MODEL
                             VERSION 1.1.4 4/01/2018
                    BASED ON MODFLOW-2005 VERSION 1.12.00 02/03/2017

 LIST FILE: rr_ss.list
                         UNIT    2

 OPENING rr_ss.dis
 FILE TYPE:DIS   UNIT   11   STATUS:OLD    
 FORMAT:FORMATTED              ACCESS:SEQUENTIAL          

 OPENING rr_ss.bas
 FILE TYPE:BAS6   UNIT   13   STATUS:OLD    
 FORMAT:FORMATTED              ACCESS:SEQUENTIAL          

 OPENING rr_ss.upw
 FILE TYPE:UPW   UNIT   31   STATUS:OLD    
 FORMAT:FORMATTED              ACCESS:SEQUENTIAL          

 OPENING rr_ss.hfb
 FILE TYPE:HFB6   UNIT   29   STATUS:OLD    
 FORMAT:FORMATTED              ACCESS:SEQUENTIAL          

 OPENING rr_ss.sfr
 FILE TYPE:SFR   UNIT   17   STATUS:OLD    
 FORMAT:FORMATTED              ACCESS:SEQUENTIAL          

 OPENING rr_ss.uzf
 FILE TYPE:UZF   UNIT   19   STATUS:OLD    
 FORMAT:FORMATTED              ACCESS:SEQUENTIAL          

 OPENING rr_ss.lak
 FILE TYPE:LAK   UNIT  119   STATUS:OLD    
 FORMAT:FORMATTED              ACCESS:SEQUENTIAL          

 OPENING rr_ss.wel
 FILE TYPE:WEL   UNIT   20   STATUS:OLD    
 FORMAT:FORMATTED              ACCESS:SEQUENTIAL          

 OPENING rr_ss.hob
 FILE TYPE:HOB   UNIT   39   STATUS:OLD    
 FORMAT:FORMATTED              ACCESS:SEQUENTIAL          

 OPENING rr_ss.gage
 FILE TYPE:GAGE   UNIT  120   STATUS:OLD    
 FORMAT:FORMATTED              ACCESS:SEQUENTIAL          

 OPENING rr_ss.oc
 FILE TYPE:OC   UNIT   14   STATUS:OLD    
 FORMAT:FORMATTED              ACCESS:SEQUENTIAL          

 OPENING rr_ss.nwt
 FILE TYPE:NWT   UNIT   32   STATUS:OLD    
 FORMAT:FORMATTED              ACCESS:SEQUENTIAL          

 OPENING Meno_bathy.dat
 FILE TYPE:DATA   UNIT 1002   STATUS:UNKNOWN
 FORMAT:FORMATTED              ACCESS:SEQUENTIAL          

 OPENING Sonoma_bathy.dat
 FILE TYPE:DATA   UNIT 1003   STATUS:UNKNOWN
 FORMAT:FORMATTED              ACCESS:SEQUENTIAL          

 OPENING Bevans_bathy.dat
 FILE TYPE:DATA   UNIT 1004   STATUS:UNKNOWN
 FORMAT:FORMATTED              ACCESS:SEQUENTIAL          

 OPENING Lolonis_bathy_dat
 FILE TYPE:DATA   UNIT 1005   STATUS:UNKNOWN
 FORMAT:FORMATTED              ACCESS:SEQUENTIAL          

 OPENING Crawford_bathy.dat
 FILE TYPE:DATA   UNIT 1006   STATUS:UNKNOWN
 FORMAT:FORMATTED              ACCESS:SEQUENTIAL          

 OPENING Bradford_bathy.dat
 FILE TYPE:DATA   UNIT 1007   STATUS:UNKNOWN
 FORMAT:FORMATTED              ACCESS:SEQUENTIAL          

 OPENING Merlo_bathy.dat
 FILE TYPE:DATA   UNIT 1008   STATUS:UNKNOWN
 FORMAT:FORMATTED              ACCESS:SEQUENTIAL          

 OPENING CoenC3_bathy.dat
 FILE TYPE:DATA   UNIT 1009   STATUS:UNKNOWN
 FORMAT:FORMATTED              ACCESS:SEQUENTIAL          

 OPENING Murray_bathy.dat
 FILE TYPE:DATA   UNIT 1010   STATUS:UNKNOWN
 FORMAT:FORMATTED              ACCESS:SEQUENTIAL          

 OPENING Mallacomes_bathy.dat
 FILE TYPE:DATA   UNIT 1011   STATUS:UNKNOWN
 FORMAT:FORMATTED              ACCESS:SEQUENTIAL          

 OPENING Towibalyla_bathy.dat
 FILE TYPE:DATA   UNIT 1012   STATUS:UNKNOWN
 FORMAT:FORMATTED              ACCESS:SEQUENTIAL          

 OPENING pumping_reduction.wel.out
 FILE TYPE:DATA   UNIT 1013   STATUS:UNKNOWN
 FORMAT:FORMATTED              ACCESS:SEQUENTIAL          

 OPENING rr_ss.cbc
 FILE TYPE:DATA(BINARY)   UNIT   55   STATUS:REPLACE
 FORMAT:BINARY                 ACCESS:SEQUENTIAL          

 OPENING rr_ss.sfr.out
 FILE TYPE:DATA   UNIT   81   STATUS:UNKNOWN
 FORMAT:FORMATTED              ACCESS:SEQUENTIAL          

 OPENING rr_ss.uzf1001.out
 FILE TYPE:DATA   UNIT 1001   STATUS:UNKNOWN
 FORMAT:FORMATTED              ACCESS:SEQUENTIAL          

 OPENING rr_ss.hob.out
 FILE TYPE:DATA   UNIT 1014   STATUS:UNKNOWN
 FORMAT:FORMATTED              ACCESS:SEQUENTIAL          

 OPENING RUSSIAN_R_JOHNSONS_BEACH_GUERNEVILLE.go
 FILE TYPE:DATA   UNIT 1019   STATUS:UNKNOWN
 FORMAT:FORMATTED              ACCESS:SEQUENTIAL          

 OPENING AUSTIN_C_NR_CAZADERO.go
 FILE TYPE:DATA   UNIT 1020   STATUS:UNKNOWN
 FORMAT:FORMATTED              ACCESS:SEQUENTIAL          

 OPENING RUSSIAN_R_NR_GUERNEVILLE.go
 FILE TYPE:DATA   UNIT 1021   STATUS:UNKNOWN
 FORMAT:FORMATTED              ACCESS:SEQUENTIAL          

 OPENING RUSSIAN_R_NR_WINDSOR.go
 FILE TYPE:DATA   UNIT 1022   STATUS:UNKNOWN
 FORMAT:FORMATTED              ACCESS:SEQUENTIAL          

 OPENING DRY_C_NR_MOUTH_NR_HEALDSBURG.go
 FILE TYPE:DATA   UNIT 1023   STATUS:UNKNOWN
 FORMAT:FORMATTED              ACCESS:SEQUENTIAL          

 OPENING RUSSIAN_R_NR_HEALDSBURG.go
 FILE TYPE:DATA   UNIT 1024   STATUS:UNKNOWN
 FORMAT:FORMATTED              ACCESS:SEQUENTIAL          

 OPENING RUSSIAN_R_DIGGER_BEND_NR_HEALDSBURG.go
 FILE TYPE:DATA   UNIT 1025   STATUS:UNKNOWN
 FORMAT:FORMATTED              ACCESS:SEQUENTIAL          

 OPENING MAACAMA_C_NR_KELLOGG.go
 FILE TYPE:DATA   UNIT 1026   STATUS:UNKNOWN
 FORMAT:FORMATTED              ACCESS:SEQUENTIAL          

 OPENING DRY_C_BLW_LAMBERT_BR_NR_GEYSERVILLE.go
 FILE TYPE:DATA   UNIT 1027   STATUS:UNKNOWN
 FORMAT:FORMATTED              ACCESS:SEQUENTIAL          

 OPENING RUSSIAN_R_JIMTOWN.go
 FILE TYPE:DATA   UNIT 1028   STATUS:UNKNOWN
 FORMAT:FORMATTED              ACCESS:SEQUENTIAL          

 OPENING DRY_C_NR_GEYSERVILLE.go
 FILE TYPE:DATA   UNIT 1029   STATUS:UNKNOWN
 FORMAT:FORMATTED              ACCESS:SEQUENTIAL          

 OPENING RUSSIAN_R_GEYSERVILLE.go
 FILE TYPE:DATA   UNIT 1030   STATUS:UNKNOWN
 FORMAT:FORMATTED              ACCESS:SEQUENTIAL          

 OPENING BIG_SULPHUR_C_A_G_RESORT_NR_CLOVERDALE.go
 FILE TYPE:DATA   UNIT 1031   STATUS:UNKNOWN
 FORMAT:FORMATTED              ACCESS:SEQUENTIAL          

 OPENING BIG_SULPHUR_C_NR_CLOVERDALE.go
 FILE TYPE:DATA   UNIT 1032   STATUS:UNKNOWN
 FORMAT:FORMATTED              ACCESS:SEQUENTIAL          

 OPENING RUSSIAN_R_NR_CLOVERDALE.go
 FILE TYPE:DATA   UNIT 1033   STATUS:UNKNOWN
 FORMAT:FORMATTED              ACCESS:SEQUENTIAL          

 OPENING RUSSIAN_R_NR_HOPLAND.go
 FILE TYPE:DATA   UNIT 1034   STATUS:UNKNOWN
 FORMAT:FORMATTED              ACCESS:SEQUENTIAL          

 OPENING RUSSIAN_R_NR_TALMAG.go
 FILE TYPE:DATA   UNIT 1035   STATUS:UNKNOWN
 FORMAT:FORMATTED              ACCESS:SEQUENTIAL          

 OPENING RUSSIAN_R_NR_UKIAH.go
 FILE TYPE:DATA   UNIT 1036   STATUS:UNKNOWN
 FORMAT:FORMATTED              ACCESS:SEQUENTIAL          

 OPENING EF_RUSSIAN_R_NR_UKIAH.go
 FILE TYPE:DATA   UNIT 1037   STATUS:UNKNOWN
 FORMAT:FORMATTED              ACCESS:SEQUENTIAL          

 OPENING EF_RUSSIAN_R_NR_CALPELLA.go
 FILE TYPE:DATA   UNIT 1038   STATUS:UNKNOWN
 FORMAT:FORMATTED              ACCESS:SEQUENTIAL          

 OPENING mendo_lake_bdg.lak.out
 FILE TYPE:DATA   UNIT 1039   STATUS:UNKNOWN
 FORMAT:FORMATTED              ACCESS:SEQUENTIAL          

 OPENING sonoma_lake_bdg.lak.out
 FILE TYPE:DATA   UNIT 1040   STATUS:UNKNOWN
 FORMAT:FORMATTED              ACCESS:SEQUENTIAL          

 OPENING rr_ss.hds
 FILE TYPE:DATA(BINARY)   UNIT   51   STATUS:REPLACE
 FORMAT:BINARY                 ACCESS:SEQUENTIAL          

 BAS -- BASIC PACKAGE, VERSION 1.1.4, 4/01/2018 INPUT READ FROM UNIT   13
 
 MODFLOW was compiled using mixed precision
 Precision of REAL variables:           6
 Precision of DOUBLE PRECISION variables:          15

 DISCRETIZATION INPUT DATA READ FROM UNIT   11
 # DIS package for  MODFLOW-NWT, generated by Flopy.
    3 LAYERS       411 ROWS       253 COLUMNS
    1 STRESS PERIOD(S) IN SIMULATION
 MODEL TIME UNIT IS DAYS
 MODEL LENGTH UNIT IS METERS
  Confining bed flag for each layer:
   0   0   0

                     DELR =   300.000    

                     DELC =   300.000    



           TOP ELEVATION OF LAYER 1
 READING ON UNIT   11 WITH FORMAT: (253E15.6)          



             MODEL LAYER BOTTOM EL. FOR LAYER   1
 READING ON UNIT   11 WITH FORMAT: (253E15.6)          



             MODEL LAYER BOTTOM EL. FOR LAYER   2
 READING ON UNIT   11 WITH FORMAT: (253E15.6)          



             MODEL LAYER BOTTOM EL. FOR LAYER   3
 READING ON UNIT   11 WITH FORMAT: (253E15.6)          


 STRESS PERIOD     LENGTH       TIME STEPS     MULTIPLIER FOR DELT    SS FLAG
 ----------------------------------------------------------------------------
        1         1.000000          1                    1.000         SS

 STEADY-STATE SIMULATION



 
 # BAS6 package for  MODFLOW-NWT, generated by Flopy.                            
 THE FREE FORMAT OPTION HAS BEEN SELECTED



                     BOUNDARY ARRAY FOR LAYER   1
 READING ON UNIT   13 WITH FORMAT: (253I10)            



                     BOUNDARY ARRAY FOR LAYER   2
 READING ON UNIT   13 WITH FORMAT: (253I10)            



                     BOUNDARY ARRAY FOR LAYER   3
 READING ON UNIT   13 WITH FORMAT: (253I10)            

 AQUIFER HEAD WILL BE SET TO  -999.99     AT ALL NO-FLOW NODES (IBOUND=0).



                       INITIAL HEAD FOR LAYER   1
 READING ON UNIT   13 WITH FORMAT: (253E15.6)          



                       INITIAL HEAD FOR LAYER   2
 READING ON UNIT   13 WITH FORMAT: (253E15.6)          



                       INITIAL HEAD FOR LAYER   3
 READING ON UNIT   13 WITH FORMAT: (253E15.6)          
 # OC package for  MODFLOW-NWT, generated by Flopy.

 OUTPUT CONTROL IS SPECIFIED ONLY AT TIME STEPS FOR WHICH OUTPUT IS DESIRED
 COMPACT CELL-BY-CELL BUDGET FILES WILL BE WRITTEN
 AUXILIARY DATA WILL BE SAVED IN CELL-BY-CELL BUDGET FILES
 HEAD PRINT FORMAT CODE IS   0    DRAWDOWN PRINT FORMAT CODE IS   0
 HEADS WILL BE SAVED ON UNIT   51    DRAWDOWNS WILL BE SAVED ON UNIT    0
 # NWT package for  MODFLOW-NWT, generated by Flopy.

 NWT1 -- Newton Solver, VERSION 1.1.4, 4/01/2018
         INPUT READ FROM UNIT 32

 SPECIFIED OPTION:
 SOLVER INPUT VALUES ARE SPECIFIED BY USER
 ***XMD linear solver will be used***
 
   CONVERGENCE CRITERION OF   0.500000E-01 FOR HEAD SOLUTION
   AND A TOLERANCE OF   0.200000E+03 FOR FLOW SOLUTION AND 
   A MAXIMUM OF  1000 OUTER ITERATIONS. 


   D-B-D REDUCTION FACTOR OF    0.750000E+00 AND 
   A D-B-D INCREASE FACTOR OF    0.100000E-04 AND 
   A D-B-D RELAXATION OF    0.000000E+00 AND 
   A MOMENTUM FACTOR OF    0.100000E+00 .


   BACKTRACKING IS ACTIVE 
   THE MAXIMUM NUMBER OF BACKTRACKS IS    30 AND 
   THE BACKTRACKING TOLERANCE IS    0.105000E+01 AND
   THE BACKTRACKING REDUCTION FACTOR IS    0.900000E+00

 
 **Active cell surrounded by inactive cells**
 **Resetting cell to inactive**
 ROW=          63 COL=          64 LAY=           1
 
 
 **Active cell surrounded by inactive cells**
 **Resetting cell to inactive**
 ROW=          64 COL=          43 LAY=           1
 
 
 **Active cell surrounded by inactive cells**
 **Resetting cell to inactive**
 ROW=          65 COL=          66 LAY=           1
 
 
 **Active cell surrounded by inactive cells**
 **Resetting cell to inactive**
 ROW=         368 COL=         133 LAY=           2
 
 XMD -- LINEAR SOLUTION BY XMD PACKAGE VERSION 1.30
     BY MOTOMU IBARAKI, OHIO STATE UNIVERSITY, COLOMBUS, OH
                 INPUT READ FROM UNIT 32
 ACCELERATION METHOD                    (IACL) =         2
 NODE ORDERING FLAG                   (NORDER) =         0
 LEVEL OF FILL                         (LEVEL) =         7
 MAXIMUM NUMBER OF ORTHOGONALIZATIONS  (NORTH) =         7
 INDEX FOR USING REDUCED SYSTEM      (IREDSYS) =         0
 RESID. REDUCTION CONVERGE CRITERION  (RRCTOL) =  0.000000E+00
 INDEX FOR USING DROP TOLERANCE     (IDROPTOL) =         1
 DROP TOLERANCE VALUE                  (EPSRN) =  0.100000E-02
 CONVERGENCE CRITERIA OF           (HCLOSEXMD) =  0.150000E-03
 MAX. NUMBER OF LINEAR ITERATIONS  (MXITERXMD) =       200


 UPW1 -- UPSTREAM WEIGHTING FLOW PACKAGE, VERSION 1.1.4, 4/01/2018
         INPUT READ FROM UNIT 31

 # UPW package for  MODFLOW-NWT, generated by Flopy.
 No named parameters

   LAYER FLAGS:
 LAYER       LAYTYP          LAYAVG    CHANI           LAYVKA           LAYWET
 ---------------------------------------------------------------------------
    1             1             0     1.000E+00             0             0
    2             1             0     1.000E+00             0             0
    3             1             0     1.000E+00             0             0

   INTERPRETATION OF LAYER FLAGS:
                        INTERBLOCK     HORIZONTAL    DATA IN
         LAYER TYPE   TRANSMISSIVITY   ANISOTROPY   ARRAY VKA   WETTABILITY
 LAYER   (LAYTYP)        (LAYAVG)      (CHANI)     (LAYVKA)       (LAYWET)
 ---------------------------------------------------------------------------
    1   CONVERTIBLE      HARMONIC     1.000E+00    VERTICAL K  NON-WETTABLE
    2   CONVERTIBLE      HARMONIC     1.000E+00    VERTICAL K  NON-WETTABLE
    3   CONVERTIBLE      HARMONIC     1.000E+00    VERTICAL K  NON-WETTABLE



              HYD. COND. ALONG ROWS FOR LAYER   1
 READING ON UNIT   31 WITH FORMAT: (253E15.6)          



                VERTICAL HYD. COND. FOR LAYER   1
 READING ON UNIT   31 WITH FORMAT: (253E15.6)          



              HYD. COND. ALONG ROWS FOR LAYER   2
 READING ON UNIT   31 WITH FORMAT: (253E15.6)          



                VERTICAL HYD. COND. FOR LAYER   2
 READING ON UNIT   31 WITH FORMAT: (253E15.6)          



              HYD. COND. ALONG ROWS FOR LAYER   3
 READING ON UNIT   31 WITH FORMAT: (253E15.6)          



                VERTICAL HYD. COND. FOR LAYER   3
 READING ON UNIT   31 WITH FORMAT: (253E15.6)          

 WEL -- WELL PACKAGE FOR NWT VERSION 1.1.4,  4/01/2018 INPUT READ FROM UNIT   20
 # WEL package for  MODFLOW-NWT, generated by Flopy.
 No named parameters

 PROCESSING WELL OPTIONS
 
 NEGATIVE PUMPING RATES WILL BE REDUCED IF HEAD 
 FALLS WITHIN THE INTERVAL PHIRAMP TIMES THE CELL 
 THICKNESS. THE VALUE SPECIFIED FOR PHIRAMP IS  0.10000E+00
 WELLS WITH REDUCED PUMPING WILL BE REPORTED TO FILE UNIT NUMBER 1013

 END PROCESSING WELL OPTIONS
 MAXIMUM OF    434 ACTIVE WELLS AT ONE TIME
 No named parameters


     0 Well parameters

 HFB -- HORIZONTAL-FLOW BARRIER PACKAGE, NWT VERSION 1.1.4, 4/01/2018.
   INPUT READ FROM UNIT   29
 # HFB6 package for  MODFLOW-NWT, generated by Flopy.
     0 PARAMETERS DEFINE A MAXIMUM OF      0 HORIZONTAL FLOW BARRIERS
   2103 HORIZONTAL FLOW BARRIERS NOT DEFINED BY PARAMETERS


     0 HFB parameters

   2103 BARRIERS NOT DEFINED BY PARAMETERS

 BARRIER  LAYER  IROW1  ICOL1  IROW2  ICOL2    HYDCHR
 -------------------------------------------------------
      1      1     244    116    244    115    10.00    
      2      2     244    116    244    115    10.00    
      3      3     244    116    244    115    10.00    
      4      1     245    116    244    116    10.00    
      5      2     245    116    244    116    10.00    
      6      3     245    116    244    116    10.00    
      7      1     245    117    245    116    10.00    
      8      2     245    117    245    116    10.00    
      9      3     245    117    245    116    10.00    
     10      1     246    117    245    117    10.00    
     11      2     246    117    245    117    10.00    
     12      3     246    117    245    117    10.00    
     13      1     246    118    246    117    10.00    
     14      2     246    118    246    117    10.00    
     15      3     246    118    246    117    10.00    
     16      1     247    118    247    117    10.00    
     17      2     247    118    247    117    10.00    
     18      3     247    118    247    117    10.00    
     19      1     248    118    247    118    10.00    
     20      2     248    118    247    118    10.00    
     21      3     248    118    247    118    10.00    
     22      1     248    119    248    118    10.00    
     23      2     248    119    248    118    10.00    
     24      3     248    119    248    118    10.00    
     25      1     249    119    248    119    10.00    
     26      2     249    119    248    119    10.00    
     27      3     249    119    248    119    10.00    
     28      1     249    120    249    119    10.00    
     29      2     249    120    249    119    10.00    
     30      3     249    120    249    119    10.00    
     31      1     250    120    250    119    10.00    
     32      2     250    120    250    119    10.00    
     33      3     250    120    250    119    10.00    
     34      1     251    120    250    120    10.00    
     35      2     251    120    250    120    10.00    
     36      3     251    120    250    120    10.00    
     37      1     251    121    251    120    10.00    
     38      2     251    121    251    120    10.00    
     39      3     251    121    251    120    10.00    
     40      1     252    121    251    121    10.00    
     41      2     252    121    251    121    10.00    
     42      3     252    121    251    121    10.00    
     43      1     252    122    252    121    10.00    
     44      2     252    122    252    121    10.00    
     45      3     252    122    252    121    10.00    
     46      1     253    122    253    121    10.00    
     47      2     253    122    253    121    10.00    
     48      3     253    122    253    121    10.00    
     49      1     254    122    253    122    10.00    
     50      2     254    122    253    122    10.00    
     51      3     254    122    253    122    10.00    
     52      1     254    123    254    122    10.00    
     53      2     254    123    254    122    10.00    
     54      3     254    123    254    122    10.00    
     55      1     255    123    254    123    10.00    
     56      2     255    123    254    123    10.00    
     57      3     255    123    254    123    10.00    
     58      1     255    124    255    123    10.00    
     59      2     255    124    255    123    10.00    
     60      3     255    124    255    123    10.00    
     61      1     256    124    256    123    10.00    
     62      2     256    124    256    123    10.00    
     63      3     256    124    256    123    10.00    
     64      1     257    124    256    124    10.00    
     65      2     257    124    256    124    10.00    
     66      3     257    124    256    124    10.00    
     67      1     257    125    257    124    10.00    
     68      2     257    125    257    124    10.00    
     69      3     257    125    257    124    10.00    
     70      1     258    125    257    125    10.00    
     71      2     258    125    257    125    10.00    
     72      3     258    125    257    125    10.00    
     73      1     258    126    258    125    10.00    
     74      2     258    126    258    125    10.00    
     75      3     258    126    258    125    10.00    
     76      1     259    126    258    126    10.00    
     77      2     259    126    258    126    10.00    
     78      3     259    126    258    126    10.00    
     79      1     259    127    259    126    10.00    
     80      2     259    127    259    126    10.00    
     81      3     259    127    259    126    10.00    
     82      1     260    127    259    127    10.00    
     83      2     260    127    259    127    10.00    
     84      3     260    127    259    127    10.00    
     85      1     260    128    260    127    10.00    
     86      2     260    128    260    127    10.00    
     87      3     260    128    260    127    10.00    
     88      1     261    128    260    128    10.00    
     89      2     261    128    260    128    10.00    
     90      3     261    128    260    128    10.00    
     91      1     261    129    261    128    10.00    
     92      2     261    129    261    128    10.00    
     93      3     261    129    261    128    10.00    
     94      1     262    129    261    129    10.00    
     95      2     262    129    261    129    10.00    
     96      3     262    129    261    129    10.00    
     97      1     262    130    262    129    10.00    
     98      2     262    130    262    129    10.00    
     99      3     262    130    262    129    10.00    
    100      1     263    127    263    126    10.00    
    101      2     263    127    263    126    10.00    
    102      3     263    127    263    126    10.00    
    103      1     263    130    262    130    10.00    
    104      2     263    130    262    130    10.00    
    105      3     263    130    262    130    10.00    
    106      1     263    131    263    130    10.00    
    107      2     263    131    263    130    10.00    
    108      3     263    131    263    130    10.00    
    109      1     264    127    263    127    10.00    
    110      2     264    127    263    127    10.00    
    111      3     264    127    263    127    10.00    
    112      1     264    128    264    127    10.00    
    113      2     264    128    264    127    10.00    
    114      3     264    128    264    127    10.00    
    115      1     264    131    263    131    10.00    
    116      2     264    131    263    131    10.00    
    117      3     264    131    263    131    10.00    
    118      1     264    132    264    131    10.00    
    119      2     264    132    264    131    10.00    
    120      3     264    132    264    131    10.00    
    121      1     264    135    263    135    10.00    
    122      2     264    135    263    135    10.00    
    123      3     264    135    263    135    10.00    
    124      1     264    136    264    135    10.00    
    125      2     264    136    264    135    10.00    
    126      3     264    136    264    135    10.00    
    127      1     265    128    264    128    10.00    
    128      2     265    128    264    128    10.00    
    129      3     265    128    264    128    10.00    
    130      1     265    129    265    128    10.00    
    131      2     265    129    265    128    10.00    
    132      3     265    129    265    128    10.00    
    133      1     265    132    264    132    10.00    
    134      2     265    132    264    132    10.00    
    135      3     265    132    264    132    10.00    
    136      1     265    133    265    132    10.00    
    137      2     265    133    265    132    10.00    
    138      3     265    133    265    132    10.00    
    139      1     265    136    264    136    10.00    
    140      2     265    136    264    136    10.00    
    141      3     265    136    264    136    10.00    
    142      1     265    137    264    137    10.00    
    143      2     265    137    264    137    10.00    
    144      3     265    137    264    137    10.00    
    145      1     265    138    265    137    10.00    
    146      2     265    138    265    137    10.00    
    147      3     265    138    265    137    10.00    
    148      1     266    129    266    128    10.00    
    149      2     266    129    266    128    10.00    
    150      3     266    129    266    128    10.00    
    151      1     266    133    265    133    10.00    
    152      2     266    133    265    133    10.00    
    153      3     266    133    265    133    10.00    
    154      1     266    134    266    133    10.00    
    155      2     266    134    266    133    10.00    
    156      3     266    134    266    133    10.00    
    157      1     266    138    265    138    10.00    
    158      2     266    138    265    138    10.00    
    159      3     266    138    265    138    10.00    
    160      1     266    139    265    139    10.00    
    161      2     266    139    265    139    10.00    
    162      3     266    139    265    139    10.00    
    163      1     266    140    266    139    10.00    
    164      2     266    140    266    139    10.00    
    165      3     266    140    266    139    10.00    
    166      1     267    129    266    129    10.00    
    167      2     267    129    266    129    10.00    
    168      3     267    129    266    129    10.00    
    169      1     267    130    267    129    10.00    
    170      2     267    130    267    129    10.00    
    171      3     267    130    267    129    10.00    
    172      1     267    134    266    134    10.00    
    173      2     267    134    266    134    10.00    
    174      3     267    134    266    134    10.00    
    175      1     267    135    267    134    10.00    
    176      2     267    135    267    134    10.00    
    177      3     267    135    267    134    10.00    
    178      1     267    140    266    140    10.00    
    179      2     267    140    266    140    10.00    
    180      3     267    140    266    140    10.00    
    181      1     267    141    267    140    10.00    
    182      2     267    141    267    140    10.00    
    183      3     267    141    267    140    10.00    
    184      1     268    130    267    130    10.00    
    185      2     268    130    267    130    10.00    
    186      3     268    130    267    130    10.00    
    187      1     268    131    268    130    10.00    
    188      2     268    131    268    130    10.00    
    189      3     268    131    268    130    10.00    
    190      1     268    135    267    135    10.00    
    191      2     268    135    267    135    10.00    
    192      3     268    135    267    135    10.00    
    193      1     268    136    268    135    10.00    
    194      2     268    136    268    135    10.00    
    195      3     268    136    268    135    10.00    
    196      1     268    141    267    141    10.00    
    197      2     268    141    267    141    10.00    
    198      3     268    141    267    141    10.00    
    199      1     268    142    268    141    10.00    
    200      2     268    142    268    141    10.00    
    201      3     268    142    268    141    10.00    
    202      1     269    136    268    136    10.00    
    203      2     269    136    268    136    10.00    
    204      3     269    136    268    136    10.00    
    205      1     269    137    269    136    10.00    
    206      2     269    137    269    136    10.00    
    207      3     269    137    269    136    10.00    
    208      1     269    142    268    142    10.00    
    209      2     269    142    268    142    10.00    
    210      3     269    142    268    142    10.00    
    211      1     269    143    269    142    10.00    
    212      2     269    143    269    142    10.00    
    213      3     269    143    269    142    10.00    
    214      1     270    137    269    137    10.00    
    215      2     270    137    269    137    10.00    
    216      3     270    137    269    137    10.00    
    217      1     270    138    270    137    10.00    
    218      2     270    138    270    137    10.00    
    219      3     270    138    270    137    10.00    
    220      1     270    143    269    143    10.00    
    221      2     270    143    269    143    10.00    
    222      3     270    143    269    143    10.00    
    223      1     270    144    270    143    10.00    
    224      2     270    144    270    143    10.00    
    225      3     270    144    270    143    10.00    
    226      1     271    133    270    133    10.00    
    227      2     271    133    270    133    10.00    
    228      3     271    133    270    133    10.00    
    229      1     271    134    271    133    10.00    
    230      2     271    134    271    133    10.00    
    231      3     271    134    271    133    10.00    
    232      1     271    138    270    138    10.00    
    233      2     271    138    270    138    10.00    
    234      3     271    138    270    138    10.00    
    235      1     271    139    271    138    10.00    
    236      2     271    139    271    138    10.00    
    237      3     271    139    271    138    10.00    
    238      1     271    144    270    144    10.00    
    239      2     271    144    270    144    10.00    
    240      3     271    144    270    144    10.00    
    241      1     271    145    271    144    10.00    
    242      2     271    145    271    144    10.00    
    243      3     271    145    271    144    10.00    
    244      1     272    134    272    133    10.00    
    245      2     272    134    272    133    10.00    
    246      3     272    134    272    133    10.00    
    247      1     272    139    271    139    10.00    
    248      2     272    139    271    139    10.00    
    249      3     272    139    271    139    10.00    
    250      1     272    140    272    139    10.00    
    251      2     272    140    272    139    10.00    
    252      3     272    140    272    139    10.00    
    253      1     272    145    271    145    10.00    
    254      2     272    145    271    145    10.00    
    255      3     272    145    271    145    10.00    
    256      1     272    146    272    145    10.00    
    257      2     272    146    272    145    10.00    
    258      3     272    146    272    145    10.00    
    259      1     273    134    272    134    10.00    
    260      2     273    134    272    134    10.00    
    261      3     273    134    272    134    10.00    
    262      1     273    135    273    134    10.00    
    263      2     273    135    273    134    10.00    
    264      3     273    135    273    134    10.00    
    265      1     273    140    272    140    10.00    
    266      2     273    140    272    140    10.00    
    267      3     273    140    272    140    10.00    
    268      1     273    141    273    140    10.00    
    269      2     273    141    273    140    10.00    
    270      3     273    141    273    140    10.00    
    271      1     273    146    272    146    10.00    
    272      2     273    146    272    146    10.00    
    273      3     273    146    272    146    10.00    
    274      1     273    147    273    146    10.00    
    275      2     273    147    273    146    10.00    
    276      3     273    147    273    146    10.00    
    277      1     274    135    274    134    10.00    
    278      2     274    135    274    134    10.00    
    279      3     274    135    274    134    10.00    
    280      1     274    141    273    141    10.00    
    281      2     274    141    273    141    10.00    
    282      3     274    141    273    141    10.00    
    283      1     274    142    273    142    10.00    
    284      2     274    142    273    142    10.00    
    285      3     274    142    273    142    10.00    
    286      1     274    143    274    142    10.00    
    287      2     274    143    274    142    10.00    
    288      3     274    143    274    142    10.00    
    289      1     274    147    274    146    10.00    
    290      2     274    147    274    146    10.00    
    291      3     274    147    274    146    10.00    
    292      1     275    135    274    135    10.00    
    293      2     275    135    274    135    10.00    
    294      3     275    135    274    135    10.00    
    295      1     275    136    275    135    10.00    
    296      2     275    136    275    135    10.00    
    297      3     275    136    275    135    10.00    
    298      1     275    143    274    143    10.00    
    299      2     275    143    274    143    10.00    
    300      3     275    143    274    143    10.00    
    301      1     275    144    275    143    10.00    
    302      2     275    144    275    143    10.00    
    303      3     275    144    275    143    10.00    
    304      1     275    147    274    147    10.00    
    305      2     275    147    274    147    10.00    
    306      3     275    147    274    147    10.00    
    307      1     275    148    275    147    10.00    
    308      2     275    148    275    147    10.00    
    309      3     275    148    275    147    10.00    
    310      1     276    136    276    135    10.00    
    311      2     276    136    276    135    10.00    
    312      3     276    136    276    135    10.00    
    313      1     276    144    275    144    10.00    
    314      2     276    144    275    144    10.00    
    315      3     276    144    275    144    10.00    
    316      1     276    145    276    144    10.00    
    317      2     276    145    276    144    10.00    
    318      3     276    145    276    144    10.00    
    319      1     276    148    275    148    10.00    
    320      2     276    148    275    148    10.00    
    321      3     276    148    275    148    10.00    
    322      1     276    149    276    148    10.00    
    323      2     276    149    276    148    10.00    
    324      3     276    149    276    148    10.00    
    325      1     277    136    276    136    10.00    
    326      2     277    136    276    136    10.00    
    327      3     277    136    276    136    10.00    
    328      1     277    137    277    136    10.00    
    329      2     277    137    277    136    10.00    
    330      3     277    137    277    136    10.00    
    331      1     277    145    276    145    10.00    
    332      2     277    145    276    145    10.00    
    333      3     277    145    276    145    10.00    
    334      1     277    146    277    145    10.00    
    335      2     277    146    277    145    10.00    
    336      3     277    146    277    145    10.00    
    337      1     277    149    276    149    10.00    
    338      2     277    149    276    149    10.00    
    339      3     277    149    276    149    10.00    
    340      1     277    150    277    149    10.00    
    341      2     277    150    277    149    10.00    
    342      3     277    150    277    149    10.00    
    343      1     278    137    277    137    10.00    
    344      2     278    137    277    137    10.00    
    345      3     278    137    277    137    10.00    
    346      1     278    138    278    137    10.00    
    347      2     278    138    278    137    10.00    
    348      3     278    138    278    137    10.00    
    349      1     278    146    277    146    10.00    
    350      2     278    146    277    146    10.00    
    351      3     278    146    277    146    10.00    
    352      1     278    147    277    147    10.00    
    353      2     278    147    277    147    10.00    
    354      3     278    147    277    147    10.00    
    355      1     278    148    278    147    10.00    
    356      2     278    148    278    147    10.00    
    357      3     278    148    278    147    10.00    
    358      1     278    150    277    150    10.00    
    359      2     278    150    277    150    10.00    
    360      3     278    150    277    150    10.00    
    361      1     278    151    278    150    10.00    
    362      2     278    151    278    150    10.00    
    363      3     278    151    278    150    10.00    
    364      1     279    138    278    138    10.00    
    365      2     279    138    278    138    10.00    
    366      3     279    138    278    138    10.00    
    367      1     279    139    279    138    10.00    
    368      2     279    139    279    138    10.00    
    369      3     279    139    279    138    10.00    
    370      1     279    148    278    148    10.00    
    371      2     279    148    278    148    10.00    
    372      3     279    148    278    148    10.00    
    373      1     279    149    279    148    10.00    
    374      2     279    149    279    148    10.00    
    375      3     279    149    279    148    10.00    
    376      1     279    151    279    150    10.00    
    377      2     279    151    279    150    10.00    
    378      3     279    151    279    150    10.00    
    379      1     280    149    279    149    10.00    
    380      2     280    149    279    149    10.00    
    381      3     280    149    279    149    10.00    
    382      1     280    150    280    149    10.00    
    383      2     280    150    280    149    10.00    
    384      3     280    150    280    149    10.00    
    385      1     280    151    279    151    10.00    
    386      2     280    151    279    151    10.00    
    387      3     280    151    279    151    10.00    
    388      1     280    152    280    151    10.00    
    389      2     280    152    280    151    10.00    
    390      3     280    152    280    151    10.00    
    391      1     281    150    280    150    10.00    
    392      2     281    150    280    150    10.00    
    393      3     281    150    280    150    10.00    
    394      1     281    152    281    151    10.00    
    395      2     281    152    281    151    10.00    
    396      3     281    152    281    151    10.00    
    397      1     282    152    281    152    10.00    
    398      2     282    152    281    152    10.00    
    399      3     282    152    281    152    10.00    
    400      1     282    153    282    152    10.00    
    401      2     282    153    282    152    10.00    
    402      3     282    153    282    152    10.00    
    403      1     283    153    283    152    10.00    
    404      2     283    153    283    152    10.00    
    405      3     283    153    283    152    10.00    
    406      1     284    153    283    153    10.00    
    407      2     284    153    283    153    10.00    
    408      3     284    153    283    153    10.00    
    409      1     284    154    284    153    10.00    
    410      2     284    154    284    153    10.00    
    411      3     284    154    284    153    10.00    
    412      1     285    154    284    154    10.00    
    413      2     285    154    284    154    10.00    
    414      3     285    154    284    154    10.00    
    415      1     285    155    285    154    10.00    
    416      2     285    155    285    154    10.00    
    417      3     285    155    285    154    10.00    
    418      1     286    155    286    154    10.00    
    419      2     286    155    286    154    10.00    
    420      3     286    155    286    154    10.00    
    421      1     287    155    286    155    10.00    
    422      2     287    155    286    155    10.00    
    423      3     287    155    286    155    10.00    
    424      1     287    156    287    155    10.00    
    425      2     287    156    287    155    10.00    
    426      3     287    156    287    155    10.00    
    427      1     288    156    287    156    10.00    
    428      2     288    156    287    156    10.00    
    429      3     288    156    287    156    10.00    
    430      1     288    157    288    156    10.00    
    431      2     288    157    288    156    10.00    
    432      3     288    157    288    156    10.00    
    433      1     289    157    288    157    10.00    
    434      2     289    157    288    157    10.00    
    435      3     289    157    288    157    10.00    
    436      1     289    158    289    157    10.00    
    437      2     289    158    289    157    10.00    
    438      3     289    158    289    157    10.00    
    439      1     290    158    289    158    10.00    
    440      2     290    158    289    158    10.00    
    441      3     290    158    289    158    10.00    
    442      1     290    159    290    158    10.00    
    443      2     290    159    290    158    10.00    
    444      3     290    159    290    158    10.00    
    445      1     291    159    291    158    10.00    
    446      2     291    159    291    158    10.00    
    447      3     291    159    291    158    10.00    
    448      1     292    159    291    159    10.00    
    449      2     292    159    291    159    10.00    
    450      3     292    159    291    159    10.00    
    451      1     292    160    292    159    10.00    
    452      2     292    160    292    159    10.00    
    453      3     292    160    292    159    10.00    
    454      1     293    160    292    160    10.00    
    455      2     293    160    292    160    10.00    
    456      3     293    160    292    160    10.00    
    457      1     293    161    293    160    10.00    
    458      2     293    161    293    160    10.00    
    459      3     293    161    293    160    10.00    
    460      1     294    161    293    161    10.00    
    461      2     294    161    293    161    10.00    
    462      3     294    161    293    161    10.00    
    463      1     294    162    294    161    10.00    
    464      2     294    162    294    161    10.00    
    465      3     294    162    294    161    10.00    
    466      1     295    162    294    162    10.00    
    467      2     295    162    294    162    10.00    
    468      3     295    162    294    162    10.00    
    469      1     295    163    295    162    10.00    
    470      2     295    163    295    162    10.00    
    471      3     295    163    295    162    10.00    
    472      1     296    163    295    163    10.00    
    473      2     296    163    295    163    10.00    
    474      3     296    163    295    163    10.00    
    475      1     296    164    296    163    10.00    
    476      2     296    164    296    163    10.00    
    477      3     296    164    296    163    10.00    
    478      1     297    161    296    161    10.00    
    479      2     297    161    296    161    10.00    
    480      3     297    161    296    161    10.00    
    481      1     297    162    297    161    10.00    
    482      2     297    162    297    161    10.00    
    483      3     297    162    297    161    10.00    
    484      1     297    164    296    164    10.00    
    485      2     297    164    296    164    10.00    
    486      3     297    164    296    164    10.00    
    487      1     297    165    297    164    10.00    
    488      2     297    165    297    164    10.00    
    489      3     297    165    297    164    10.00    
    490      1     298    162    297    162    10.00    
    491      2     298    162    297    162    10.00    
    492      3     298    162    297    162    10.00    
    493      1     298    163    297    163    10.00    
    494      2     298    163    297    163    10.00    
    495      3     298    163    297    163    10.00    
    496      1     298    164    298    163    10.00    
    497      2     298    164    298    163    10.00    
    498      3     298    164    298    163    10.00    
    499      1     298    165    297    165    10.00    
    500      2     298    165    297    165    10.00    
    501      3     298    165    297    165    10.00    
    502      1     298    166    297    166    10.00    
    503      2     298    166    297    166    10.00    
    504      3     298    166    297    166    10.00    
    505      1     298    167    298    166    10.00    
    506      2     298    167    298    166    10.00    
    507      3     298    167    298    166    10.00    
    508      1     299    161    298    161    10.00    
    509      2     299    161    298    161    10.00    
    510      3     299    161    298    161    10.00    
    511      1     299    162    299    161    10.00    
    512      2     299    162    299    161    10.00    
    513      3     299    162    299    161    10.00    
    514      1     299    164    298    164    10.00    
    515      2     299    164    298    164    10.00    
    516      3     299    164    298    164    10.00    
    517      1     299    165    299    164    10.00    
    518      2     299    165    299    164    10.00    
    519      3     299    165    299    164    10.00    
    520      1     299    167    298    167    10.00    
    521      2     299    167    298    167    10.00    
    522      3     299    167    298    167    10.00    
    523      1     299    168    299    167    10.00    
    524      2     299    168    299    167    10.00    
    525      3     299    168    299    167    10.00    
    526      1     300    162    299    162    10.00    
    527      2     300    162    299    162    10.00    
    528      3     300    162    299    162    10.00    
    529      1     300    163    300    162    10.00    
    530      2     300    163    300    162    10.00    
    531      3     300    163    300    162    10.00    
    532      1     300    165    299    165    10.00    
    533      2     300    165    299    165    10.00    
    534      3     300    165    299    165    10.00    
    535      1     300    166    300    165    10.00    
    536      2     300    166    300    165    10.00    
    537      3     300    166    300    165    10.00    
    538      1     300    168    299    168    10.00    
    539      2     300    168    299    168    10.00    
    540      3     300    168    299    168    10.00    
    541      1     300    169    300    168    10.00    
    542      2     300    169    300    168    10.00    
    543      3     300    169    300    168    10.00    
    544      1     301    163    301    162    10.00    
    545      2     301    163    301    162    10.00    
    546      3     301    163    301    162    10.00    
    547      1     301    166    300    166    10.00    
    548      2     301    166    300    166    10.00    
    549      3     301    166    300    166    10.00    
    550      1     301    167    300    167    10.00    
    551      2     301    167    300    167    10.00    
    552      3     301    167    300    167    10.00    
    553      1     301    168    301    167    10.00    
    554      2     301    168    301    167    10.00    
    555      3     301    168    301    167    10.00    
    556      1     301    169    300    169    10.00    
    557      2     301    169    300    169    10.00    
    558      3     301    169    300    169    10.00    
    559      1     301    170    301    169    10.00    
    560      2     301    170    301    169    10.00    
    561      3     301    170    301    169    10.00    
    562      1     302    163    301    163    10.00    
    563      2     302    163    301    163    10.00    
    564      3     302    163    301    163    10.00    
    565      1     302    164    302    163    10.00    
    566      2     302    164    302    163    10.00    
    567      3     302    164    302    163    10.00    
    568      1     302    168    301    168    10.00    
    569      2     302    168    301    168    10.00    
    570      3     302    168    301    168    10.00    
    571      1     302    169    301    169    10.00    
    572      2     302    169    301    169    10.00    
    573      3     302    169    301    169    10.00    
    574      1     302    170    301    170    10.00    
    575      2     302    170    301    170    10.00    
    576      3     302    170    301    170    10.00    
    577      1     302    171    302    170    10.00    
    578      2     302    171    302    170    10.00    
    579      3     302    171    302    170    10.00    
    580      1     303    164    302    164    10.00    
    581      2     303    164    302    164    10.00    
    582      3     303    164    302    164    10.00    
    583      1     303    165    303    164    10.00    
    584      2     303    165    303    164    10.00    
    585      3     303    165    303    164    10.00    
    586      1     303    171    302    171    10.00    
    587      2     303    171    302    171    10.00    
    588      3     303    171    302    171    10.00    
    589      1     303    172    303    171    10.00    
    590      2     303    172    303    171    10.00    
    591      3     303    172    303    171    10.00    
    592      1     304    165    303    165    10.00    
    593      2     304    165    303    165    10.00    
    594      3     304    165    303    165    10.00    
    595      1     304    166    304    165    10.00    
    596      2     304    166    304    165    10.00    
    597      3     304    166    304    165    10.00    
    598      1     304    172    303    172    10.00    
    599      2     304    172    303    172    10.00    
    600      3     304    172    303    172    10.00    
    601      1     304    173    304    172    10.00    
    602      2     304    173    304    172    10.00    
    603      3     304    173    304    172    10.00    
    604      1     305    173    304    173    10.00    
    605      2     305    173    304    173    10.00    
    606      3     305    173    304    173    10.00    
    607      1      26     28     26     27    10.00    
    608      2      26     28     26     27    10.00    
    609      3      26     28     26     27    10.00    
    610      1      27     28     27     27    10.00    
    611      2      27     28     27     27    10.00    
    612      3      27     28     27     27    10.00    
    613      1      28     28     27     28    10.00    
    614      2      28     28     27     28    10.00    
    615      3      28     28     27     28    10.00    
    616      1      28     29     28     28    10.00    
    617      2      28     29     28     28    10.00    
    618      3      28     29     28     28    10.00    
    619      1      29     29     28     29    10.00    
    620      2      29     29     28     29    10.00    
    621      3      29     29     28     29    10.00    
    622      1      29     30     29     29    10.00    
    623      2      29     30     29     29    10.00    
    624      3      29     30     29     29    10.00    
    625      1      30     30     30     29    10.00    
    626      2      30     30     30     29    10.00    
    627      3      30     30     30     29    10.00    
    628      1      31     30     30     30    10.00    
    629      2      31     30     30     30    10.00    
    630      3      31     30     30     30    10.00    
    631      1      31     31     31     30    10.00    
    632      2      31     31     31     30    10.00    
    633      3      31     31     31     30    10.00    
    634      1      32     31     31     31    10.00    
    635      2      32     31     31     31    10.00    
    636      3      32     31     31     31    10.00    
    637      1      32     32     32     31    10.00    
    638      2      32     32     32     31    10.00    
    639      3      32     32     32     31    10.00    
    640      1      33     32     33     31    10.00    
    641      2      33     32     33     31    10.00    
    642      3      33     32     33     31    10.00    
    643      1      34     32     33     32    10.00    
    644      2      34     32     33     32    10.00    
    645      3      34     32     33     32    10.00    
    646      1      34     33     34     32    10.00    
    647      2      34     33     34     32    10.00    
    648      3      34     33     34     32    10.00    
    649      1      35     33     34     33    10.00    
    650      2      35     33     34     33    10.00    
    651      3      35     33     34     33    10.00    
    652      1      35     34     35     33    10.00    
    653      2      35     34     35     33    10.00    
    654      3      35     34     35     33    10.00    
    655      1      36     34     35     34    10.00    
    656      2      36     34     35     34    10.00    
    657      3      36     34     35     34    10.00    
    658      1      36     35     36     34    10.00    
    659      2      36     35     36     34    10.00    
    660      3      36     35     36     34    10.00    
    661      1      37     35     37     34    10.00    
    662      2      37     35     37     34    10.00    
    663      3      37     35     37     34    10.00    
    664      1      38     35     37     35    10.00    
    665      2      38     35     37     35    10.00    
    666      3      38     35     37     35    10.00    
    667      1      38     36     38     35    10.00    
    668      2      38     36     38     35    10.00    
    669      3      38     36     38     35    10.00    
    670      1      39     36     38     36    10.00    
    671      2      39     36     38     36    10.00    
    672      3      39     36     38     36    10.00    
    673      1      39     37     39     36    10.00    
    674      2      39     37     39     36    10.00    
    675      3      39     37     39     36    10.00    
    676      1      40     37     39     37    10.00    
    677      2      40     37     39     37    10.00    
    678      3      40     37     39     37    10.00    
    679      1      40     38     40     37    10.00    
    680      2      40     38     40     37    10.00    
    681      3      40     38     40     37    10.00    
    682      1      41     38     40     38    10.00    
    683      2      41     38     40     38    10.00    
    684      3      41     38     40     38    10.00    
    685      1      41     39     41     38    10.00    
    686      2      41     39     41     38    10.00    
    687      3      41     39     41     38    10.00    
    688      1      42     39     41     39    10.00    
    689      2      42     39     41     39    10.00    
    690      3      42     39     41     39    10.00    
    691      1      42     40     42     39    10.00    
    692      2      42     40     42     39    10.00    
    693      3      42     40     42     39    10.00    
    694      1      43     40     43     39    10.00    
    695      2      43     40     43     39    10.00    
    696      3      43     40     43     39    10.00    
    697      1      44     40     43     40    10.00    
    698      2      44     40     43     40    10.00    
    699      3      44     40     43     40    10.00    
    700      1      44     41     44     40    10.00    
    701      2      44     41     44     40    10.00    
    702      3      44     41     44     40    10.00    
    703      1      45     41     45     40    10.00    
    704      2      45     41     45     40    10.00    
    705      3      45     41     45     40    10.00    
    706      1      46     41     45     41    10.00    
    707      2      46     41     45     41    10.00    
    708      3      46     41     45     41    10.00    
    709      1      46     42     46     41    10.00    
    710      2      46     42     46     41    10.00    
    711      3      46     42     46     41    10.00    
    712      1      47     42     46     42    10.00    
    713      2      47     42     46     42    10.00    
    714      3      47     42     46     42    10.00    
    715      1      47     43     47     42    10.00    
    716      2      47     43     47     42    10.00    
    717      3      47     43     47     42    10.00    
    718      1      48     43     48     42    10.00    
    719      2      48     43     48     42    10.00    
    720      3      48     43     48     42    10.00    
    721      1      49     43     48     43    10.00    
    722      2      49     43     48     43    10.00    
    723      3      49     43     48     43    10.00    
    724      1      49     44     49     43    10.00    
    725      2      49     44     49     43    10.00    
    726      3      49     44     49     43    10.00    
    727      1      50     44     49     44    10.00    
    728      2      50     44     49     44    10.00    
    729      3      50     44     49     44    10.00    
    730      1      50     45     50     44    10.00    
    731      2      50     45     50     44    10.00    
    732      3      50     45     50     44    10.00    
    733      1      51     45     51     44    10.00    
    734      2      51     45     51     44    10.00    
    735      3      51     45     51     44    10.00    
    736      1      52     45     51     45    10.00    
    737      2      52     45     51     45    10.00    
    738      3      52     45     51     45    10.00    
    739      1      52     46     52     45    10.00    
    740      2      52     46     52     45    10.00    
    741      3      52     46     52     45    10.00    
    742      1      53     46     53     45    10.00    
    743      2      53     46     53     45    10.00    
    744      3      53     46     53     45    10.00    
    745      1      54     46     53     46    10.00    
    746      2      54     46     53     46    10.00    
    747      3      54     46     53     46    10.00    
    748      1      54     47     54     46    10.00    
    749      2      54     47     54     46    10.00    
    750      3      54     47     54     46    10.00    
    751      1      55     47     55     46    10.00    
    752      2      55     47     55     46    10.00    
    753      3      55     47     55     46    10.00    
    754      1      56     47     56     46    10.00    
    755      2      56     47     56     46    10.00    
    756      3      56     47     56     46    10.00    
    757      1      57     47     56     47    10.00    
    758      2      57     47     56     47    10.00    
    759      3      57     47     56     47    10.00    
    760      1      57     48     57     47    10.00    
    761      2      57     48     57     47    10.00    
    762      3      57     48     57     47    10.00    
    763      1      58     48     57     48    10.00    
    764      2      58     48     57     48    10.00    
    765      3      58     48     57     48    10.00    
    766      1      58     49     58     48    10.00    
    767      2      58     49     58     48    10.00    
    768      3      58     49     58     48    10.00    
    769      1      59     49     59     48    10.00    
    770      2      59     49     59     48    10.00    
    771      3      59     49     59     48    10.00    
    772      1      60     49     59     49    10.00    
    773      2      60     49     59     49    10.00    
    774      3      60     49     59     49    10.00    
    775      1      60     50     60     49    10.00    
    776      2      60     50     60     49    10.00    
    777      3      60     50     60     49    10.00    
    778      1      61     50     61     49    10.00    
    779      2      61     50     61     49    10.00    
    780      3      61     50     61     49    10.00    
    781      1      62     50     61     50    10.00    
    782      2      62     50     61     50    10.00    
    783      3      62     50     61     50    10.00    
    784      1      62     51     62     50    10.00    
    785      2      62     51     62     50    10.00    
    786      3      62     51     62     50    10.00    
    787      1      63     51     63     50    10.00    
    788      2      63     51     63     50    10.00    
    789      3      63     51     63     50    10.00    
    790      1      64     51     63     51    10.00    
    791      2      64     51     63     51    10.00    
    792      3      64     51     63     51    10.00    
    793      1      64     52     64     51    10.00    
    794      2      64     52     64     51    10.00    
    795      3      64     52     64     51    10.00    
    796      1      65     52     65     51    10.00    
    797      2      65     52     65     51    10.00    
    798      3      65     52     65     51    10.00    
    799      1      66     52     65     52    10.00    
    800      2      66     52     65     52    10.00    
    801      3      66     52     65     52    10.00    
    802      1      66     53     66     52    10.00    
    803      2      66     53     66     52    10.00    
    804      3      66     53     66     52    10.00    
    805      1      67     53     67     52    10.00    
    806      2      67     53     67     52    10.00    
    807      3      67     53     67     52    10.00    
    808      1      68     53     68     52    10.00    
    809      2      68     53     68     52    10.00    
    810      3      68     53     68     52    10.00    
    811      1      69     53     68     53    10.00    
    812      2      69     53     68     53    10.00    
    813      3      69     53     68     53    10.00    
    814      1      69     53     69     52    10.00    
    815      2      69     53     69     52    10.00    
    816      3      69     53     69     52    10.00    
    817      1      69     54     69     53    10.00    
    818      2      69     54     69     53    10.00    
    819      3      69     54     69     53    10.00    
    820      1      70     53     69     53    10.00    
    821      2      70     53     69     53    10.00    
    822      3      70     53     69     53    10.00    
    823      1      70     54     70     53    10.00    
    824      2      70     54     70     53    10.00    
    825      3      70     54     70     53    10.00    
    826      1      71     54     70     54    10.00    
    827      2      71     54     70     54    10.00    
    828      3      71     54     70     54    10.00    
    829      1      71     54     71     53    10.00    
    830      2      71     54     71     53    10.00    
    831      3      71     54     71     53    10.00    
    832      1      71     55     71     54    10.00    
    833      2      71     55     71     54    10.00    
    834      3      71     55     71     54    10.00    
    835      1      72     54     72     53    10.00    
    836      2      72     54     72     53    10.00    
    837      3      72     54     72     53    10.00    
    838      1      72     55     72     54    10.00    
    839      2      72     55     72     54    10.00    
    840      3      72     55     72     54    10.00    
    841      1      73     54     72     54    10.00    
    842      2      73     54     72     54    10.00    
    843      3      73     54     72     54    10.00    
    844      1      73     55     72     55    10.00    
    845      2      73     55     72     55    10.00    
    846      3      73     55     72     55    10.00    
    847      1      73     55     73     54    10.00    
    848      2      73     55     73     54    10.00    
    849      3      73     55     73     54    10.00    
    850      1      73     56     73     55    10.00    
    851      2      73     56     73     55    10.00    
    852      3      73     56     73     55    10.00    
    853      1      74     55     74     54    10.00    
    854      2      74     55     74     54    10.00    
    855      3      74     55     74     54    10.00    
    856      1      74     56     74     55    10.00    
    857      2      74     56     74     55    10.00    
    858      3      74     56     74     55    10.00    
    859      1      75     55     74     55    10.00    
    860      2      75     55     74     55    10.00    
    861      3      75     55     74     55    10.00    
    862      1      75     56     74     56    10.00    
    863      2      75     56     74     56    10.00    
    864      3      75     56     74     56    10.00    
    865      1      75     56     75     55    10.00    
    866      2      75     56     75     55    10.00    
    867      3      75     56     75     55    10.00    
    868      1      75     57     75     56    10.00    
    869      2      75     57     75     56    10.00    
    870      3      75     57     75     56    10.00    
    871      1      76     56     76     55    10.00    
    872      2      76     56     76     55    10.00    
    873      3      76     56     76     55    10.00    
    874      1      76     57     76     56    10.00    
    875      2      76     57     76     56    10.00    
    876      3      76     57     76     56    10.00    
    877      1      77     56     76     56    10.00    
    878      2      77     56     76     56    10.00    
    879      3      77     56     76     56    10.00    
    880      1      77     57     76     57    10.00    
    881      2      77     57     76     57    10.00    
    882      3      77     57     76     57    10.00    
    883      1      77     58     77     57    10.00    
    884      2      77     58     77     57    10.00    
    885      3      77     58     77     57    10.00    
    886      1      78     58     78     57    10.00    
    887      2      78     58     78     57    10.00    
    888      3      78     58     78     57    10.00    
    889      1      79     58     78     58    10.00    
    890      2      79     58     78     58    10.00    
    891      3      79     58     78     58    10.00    
    892      1      79     59     79     58    10.00    
    893      2      79     59     79     58    10.00    
    894      3      79     59     79     58    10.00    
    895      1      80     59     80     58    10.00    
    896      2      80     59     80     58    10.00    
    897      3      80     59     80     58    10.00    
    898      1      81     59     81     58    10.00    
    899      2      81     59     81     58    10.00    
    900      3      81     59     81     58    10.00    
    901      1      82     59     81     59    10.00    
    902      2      82     59     81     59    10.00    
    903      3      82     59     81     59    10.00    
    904      1      82     60     82     59    10.00    
    905      2      82     60     82     59    10.00    
    906      3      82     60     82     59    10.00    
    907      1      83     60     83     59    10.00    
    908      2      83     60     83     59    10.00    
    909      3      83     60     83     59    10.00    
    910      1      84     60     84     59    10.00    
    911      2      84     60     84     59    10.00    
    912      3      84     60     84     59    10.00    
    913      1      85     60     84     60    10.00    
    914      2      85     60     84     60    10.00    
    915      3      85     60     84     60    10.00    
    916      1      85     61     85     60    10.00    
    917      2      85     61     85     60    10.00    
    918      3      85     61     85     60    10.00    
    919      1      86     61     86     60    10.00    
    920      2      86     61     86     60    10.00    
    921      3      86     61     86     60    10.00    
    922      1      87     61     86     61    10.00    
    923      2      87     61     86     61    10.00    
    924      3      87     61     86     61    10.00    
    925      1      87     62     87     61    10.00    
    926      2      87     62     87     61    10.00    
    927      3      87     62     87     61    10.00    
    928      1      88     62     88     61    10.00    
    929      2      88     62     88     61    10.00    
    930      3      88     62     88     61    10.00    
    931      1      89     62     89     61    10.00    
    932      2      89     62     89     61    10.00    
    933      3      89     62     89     61    10.00    
    934      1      90     62     89     62    10.00    
    935      2      90     62     89     62    10.00    
    936      3      90     62     89     62    10.00    
    937      1      90     63     90     62    10.00    
    938      2      90     63     90     62    10.00    
    939      3      90     63     90     62    10.00    
    940      1      91     63     91     62    10.00    
    941      2      91     63     91     62    10.00    
    942      3      91     63     91     62    10.00    
    943      1      92     63     91     63    10.00    
    944      2      92     63     91     63    10.00    
    945      3      92     63     91     63    10.00    
    946      1      92     64     92     63    10.00    
    947      2      92     64     92     63    10.00    
    948      3      92     64     92     63    10.00    
    949      1      93     64     93     63    10.00    
    950      2      93     64     93     63    10.00    
    951      3      93     64     93     63    10.00    
    952      1      94     64     93     64    10.00    
    953      2      94     64     93     64    10.00    
    954      3      94     64     93     64    10.00    
    955      1      94     65     94     64    10.00    
    956      2      94     65     94     64    10.00    
    957      3      94     65     94     64    10.00    
    958      1      95     65     95     64    10.00    
    959      2      95     65     95     64    10.00    
    960      3      95     65     95     64    10.00    
    961      1      96     65     96     64    10.00    
    962      2      96     65     96     64    10.00    
    963      3      96     65     96     64    10.00    
    964      1      97     65     96     65    10.00    
    965      2      97     65     96     65    10.00    
    966      3      97     65     96     65    10.00    
    967      1      97     66     97     65    10.00    
    968      2      97     66     97     65    10.00    
    969      3      97     66     97     65    10.00    
    970      1      98     66     97     66    10.00    
    971      2      98     66     97     66    10.00    
    972      3      98     66     97     66    10.00    
    973      1      98     67     98     66    10.00    
    974      2      98     67     98     66    10.00    
    975      3      98     67     98     66    10.00    
    976      1      99     67     99     66    10.00    
    977      2      99     67     99     66    10.00    
    978      3      99     67     99     66    10.00    
    979      1     100     67     99     67    10.00    
    980      2     100     67     99     67    10.00    
    981      3     100     67     99     67    10.00    
    982      1     100     68    100     67    10.00    
    983      2     100     68    100     67    10.00    
    984      3     100     68    100     67    10.00    
    985      1     101     68    101     67    10.00    
    986      2     101     68    101     67    10.00    
    987      3     101     68    101     67    10.00    
    988      1     102     68    102     67    10.00    
    989      2     102     68    102     67    10.00    
    990      3     102     68    102     67    10.00    
    991      1     103     68    102     68    10.00    
    992      2     103     68    102     68    10.00    
    993      3     103     68    102     68    10.00    
    994      1     103     69    103     68    10.00    
    995      2     103     69    103     68    10.00    
    996      3     103     69    103     68    10.00    
    997      1     104     69    104     68    10.00    
    998      2     104     69    104     68    10.00    
    999      3     104     69    104     68    10.00    
   1000      1     105     69    105     68    10.00    
   1001      2     105     69    105     68    10.00    
   1002      3     105     69    105     68    10.00    
   1003      1     106     69    105     69    10.00    
   1004      2     106     69    105     69    10.00    
   1005      3     106     69    105     69    10.00    
   1006      1     106     70    106     69    10.00    
   1007      2     106     70    106     69    10.00    
   1008      3     106     70    106     69    10.00    
   1009      1     107     70    107     69    10.00    
   1010      2     107     70    107     69    10.00    
   1011      3     107     70    107     69    10.00    
   1012      1     108     70    108     69    10.00    
   1013      2     108     70    108     69    10.00    
   1014      3     108     70    108     69    10.00    
   1015      1     109     70    109     69    10.00    
   1016      2     109     70    109     69    10.00    
   1017      3     109     70    109     69    10.00    
   1018      1     110     70    109     70    10.00    
   1019      2     110     70    109     70    10.00    
   1020      3     110     70    109     70    10.00    
   1021      1     110     71    110     70    10.00    
   1022      2     110     71    110     70    10.00    
   1023      3     110     71    110     70    10.00    
   1024      1     111     71    111     70    10.00    
   1025      2     111     71    111     70    10.00    
   1026      3     111     71    111     70    10.00    
   1027      1     112     71    111     71    10.00    
   1028      2     112     71    111     71    10.00    
   1029      3     112     71    111     71    10.00    
   1030      1     112     72    112     71    10.00    
   1031      2     112     72    112     71    10.00    
   1032      3     112     72    112     71    10.00    
   1033      1     113     72    113     71    10.00    
   1034      2     113     72    113     71    10.00    
   1035      3     113     72    113     71    10.00    
   1036      1     114     72    113     72    10.00    
   1037      2     114     72    113     72    10.00    
   1038      3     114     72    113     72    10.00    
   1039      1     114     73    114     72    10.00    
   1040      2     114     73    114     72    10.00    
   1041      3     114     73    114     72    10.00    
   1042      1     115     73    115     72    10.00    
   1043      2     115     73    115     72    10.00    
   1044      3     115     73    115     72    10.00    
   1045      1     116     73    115     73    10.00    
   1046      2     116     73    115     73    10.00    
   1047      3     116     73    115     73    10.00    
   1048      1     116     74    116     73    10.00    
   1049      2     116     74    116     73    10.00    
   1050      3     116     74    116     73    10.00    
   1051      1     117     74    117     73    10.00    
   1052      2     117     74    117     73    10.00    
   1053      3     117     74    117     73    10.00    
   1054      1     118     74    118     73    10.00    
   1055      2     118     74    118     73    10.00    
   1056      3     118     74    118     73    10.00    
   1057      1     119     74    118     74    10.00    
   1058      2     119     74    118     74    10.00    
   1059      3     119     74    118     74    10.00    
   1060      1     119     75    119     74    10.00    
   1061      2     119     75    119     74    10.00    
   1062      3     119     75    119     74    10.00    
   1063      1     120     75    120     74    10.00    
   1064      2     120     75    120     74    10.00    
   1065      3     120     75    120     74    10.00    
   1066      1     121     76    121     75    10.00    
   1067      2     121     76    121     75    10.00    
   1068      3     121     76    121     75    10.00    
   1069      1     122     76    121     76    10.00    
   1070      2     122     76    121     76    10.00    
   1071      3     122     76    121     76    10.00    
   1072      1     122     77    122     76    10.00    
   1073      2     122     77    122     76    10.00    
   1074      3     122     77    122     76    10.00    
   1075      1     123     77    123     76    10.00    
   1076      2     123     77    123     76    10.00    
   1077      3     123     77    123     76    10.00    
   1078      1     124     77    123     77    10.00    
   1079      2     124     77    123     77    10.00    
   1080      3     124     77    123     77    10.00    
   1081      1     124     78    124     77    10.00    
   1082      2     124     78    124     77    10.00    
   1083      3     124     78    124     77    10.00    
   1084      1     125     78    124     78    10.00    
   1085      2     125     78    124     78    10.00    
   1086      3     125     78    124     78    10.00    
   1087      1     125     79    125     78    10.00    
   1088      2     125     79    125     78    10.00    
   1089      3     125     79    125     78    10.00    
   1090      1     126     79    126     78    10.00    
   1091      2     126     79    126     78    10.00    
   1092      3     126     79    126     78    10.00    
   1093      1     127     79    126     79    10.00    
   1094      2     127     79    126     79    10.00    
   1095      3     127     79    126     79    10.00    
   1096      1     127     80    127     79    10.00    
   1097      2     127     80    127     79    10.00    
   1098      3     127     80    127     79    10.00    
   1099      1     128     80    128     79    10.00    
   1100      2     128     80    128     79    10.00    
   1101      3     128     80    128     79    10.00    
   1102      1     129     80    128     80    10.00    
   1103      2     129     80    128     80    10.00    
   1104      3     129     80    128     80    10.00    
   1105      1     129     81    129     80    10.00    
   1106      2     129     81    129     80    10.00    
   1107      3     129     81    129     80    10.00    
   1108      1     130     81    129     81    10.00    
   1109      2     130     81    129     81    10.00    
   1110      3     130     81    129     81    10.00    
   1111      1     130     82    130     81    10.00    
   1112      2     130     82    130     81    10.00    
   1113      3     130     82    130     81    10.00    
   1114      1     131     82    131     81    10.00    
   1115      2     131     82    131     81    10.00    
   1116      3     131     82    131     81    10.00    
   1117      1     132     82    131     82    10.00    
   1118      2     132     82    131     82    10.00    
   1119      3     132     82    131     82    10.00    
   1120      1     132     83    132     82    10.00    
   1121      2     132     83    132     82    10.00    
   1122      3     132     83    132     82    10.00    
   1123      1     133     83    132     83    10.00    
   1124      2     133     83    132     83    10.00    
   1125      3     133     83    132     83    10.00    
   1126      1     133     84    133     83    10.00    
   1127      2     133     84    133     83    10.00    
   1128      3     133     84    133     83    10.00    
   1129      1     134     84    133     84    10.00    
   1130      2     134     84    133     84    10.00    
   1131      3     134     84    133     84    10.00    
   1132      1     134     85    134     84    10.00    
   1133      2     134     85    134     84    10.00    
   1134      3     134     85    134     84    10.00    
   1135      1     135     85    135     84    10.00    
   1136      2     135     85    135     84    10.00    
   1137      3     135     85    135     84    10.00    
   1138      1     136     85    135     85    10.00    
   1139      2     136     85    135     85    10.00    
   1140      3     136     85    135     85    10.00    
   1141      1     136     86    136     85    10.00    
   1142      2     136     86    136     85    10.00    
   1143      3     136     86    136     85    10.00    
   1144      1     137     86    137     85    10.00    
   1145      2     137     86    137     85    10.00    
   1146      3     137     86    137     85    10.00    
   1147      1     138     86    137     86    10.00    
   1148      2     138     86    137     86    10.00    
[...]
   8     0.0000E+00  7.6025E-04       0.0000E+00       0.0000E+00       0.0000E+00
   9     0.0000E+00  6.2690E+02       0.0000E+00       0.0000E+00       0.0000E+00
  10     0.0000E+00  2.8407E+03       0.0000E+00       0.0000E+00       0.0000E+00
  11     0.0000E+00  1.7655E+01       0.0000E+00       0.0000E+00       0.0000E+00

            GROUND WATER            SURFACE WATER       UZF INFIL.
 LAKE    INFLOW     OUTFLOW      INFLOW     OUTFLOW     FROM LAKE
   1  4.6311E+03  2.0868E+03  7.9490E+05  7.5995E+05    0.0000E+00
   2  2.0552E+01  6.8605E+04  6.3755E+05  4.2694E+04    1.6200E-02
   3  0.0000E+00  1.4208E+03  1.5926E+04  1.1871E+04    0.0000E+00
   4  0.0000E+00  1.1081E+04  1.9600E+04  6.0323E+03    0.0000E+00
   5  0.0000E+00  5.1723E+03  3.3475E+04  2.2460E+04    0.0000E+00
   6  0.0000E+00  3.0960E+03  1.5061E+04  5.7177E+03    0.0000E+00
   7  0.0000E+00  4.3382E+02  8.1168E+03  1.0000E-05    0.0000E+00
   8  0.0000E+00  0.0000E+00  0.0000E+00  0.0000E+00    0.0000E+00
   9  0.0000E+00  6.5838E+03  7.2287E+03  1.0000E-05    1.8000E+01
  10  0.0000E+00  6.4664E+02  1.1357E+04  7.8694E+03    0.0000E+00
  11  1.7655E+01  0.0000E+00  0.0000E+00  0.0000E+00    0.0000E+00

         WATER    CONNECTED LAKE   CHANGE       PERCENT
 LAKE     USE         INFLUX       IN VOL.    DISCREPANCY
   1   0.0000E+00   0.0000E+00    N/A (SS)       0.000
   2   0.0000E+00   0.0000E+00    N/A (SS)       0.000
   3   0.0000E+00   0.0000E+00    N/A (SS)       0.000
   4   0.0000E+00   0.0000E+00    N/A (SS)       0.000
   5   0.0000E+00   0.0000E+00    N/A (SS)       0.000
   6   0.0000E+00   0.0000E+00    N/A (SS)      -0.000
   7   0.0000E+00   0.0000E+00    N/A (SS)       0.000
   8   0.0000E+00   0.0000E+00    N/A (SS)    -100.000
   9   0.0000E+00   0.0000E+00    N/A (SS)       0.000
  10   0.0000E+00   0.0000E+00    N/A (SS)       0.000
  11   0.0000E+00   0.0000E+00    N/A (SS)       0.000
 --------------------------------------------------------------------------------



UNSATURATED ZONE PACKAGE VOLUMETRIC BUDGET FOR  TIME STEP     1 STRESS PERIOD    1
  ------------------------------------------------------------------------------



     CUMULATIVE VOLUMES      L**3       RATES FOR THIS TIME STEP      L**3/T
     ------------------                 ------------------------

           IN:                                      IN:
           ---                                      ---
        INFILTRATION =      810239.5088          INFILTRATION =      810239.5088

          OUT:                                     OUT:
          ----                                     ----
              UZF ET =       0.0000E+00                UZF ET =       0.0000E+00
        UZF RECHARGE =      810239.5088          UZF RECHARGE =      810239.5088

            IN - OUT =       0.0000E+00              IN - OUT =       0.0000E+00

          STORAGE:                                 STORAGE:
          --------                                 --------
      STORAGE CHANGE =       0.0000E+00        STORAGE CHANGE =       0.0000E+00

 PERCENT DISCREPANCY IS DIFFERENCE BETWEEN IN-OUT MINUS CHANGE IN STORAGE
 DIVIDED BY THE AVERAGE OF IN AND OUT TIMES 100

 PERCENT DISCREPANCY =           0.00     PERCENT DISCREPANCY =           0.00







 INTERPOLATION FOR HEAD OBS#    2, ID HO_1         CHANGED BECAUSE AT LEAST ONE
 NEIGHBORING CELL REQUIRED FOR INTERPOLATION IS DRY OR INACTIVE (OBS2BAS7SE)

 INTERPOLATION FOR HEAD OBS#    3, ID HO_2         CHANGED BECAUSE AT LEAST ONE
 NEIGHBORING CELL REQUIRED FOR INTERPOLATION IS DRY OR INACTIVE (OBS2BAS7SE)

 INTERPOLATION FOR HEAD OBS#   10, ID HO_9         CHANGED BECAUSE AT LEAST ONE
 NEIGHBORING CELL REQUIRED FOR INTERPOLATION IS DRY OR INACTIVE (OBS2BAS7SE)

 INTERPOLATION FOR HEAD OBS#   11, ID HO_10        CHANGED BECAUSE AT LEAST ONE
 NEIGHBORING CELL REQUIRED FOR INTERPOLATION IS DRY OR INACTIVE (OBS2BAS7SE)

 INTERPOLATION FOR HEAD OBS#   73, ID HO_72        CHANGED BECAUSE AT LEAST ONE
 NEIGHBORING CELL REQUIRED FOR INTERPOLATION IS DRY OR INACTIVE (OBS2BAS7SE)

 INTERPOLATION FOR HEAD OBS#  138, ID HO_137       CHANGED BECAUSE AT LEAST ONE
 NEIGHBORING CELL REQUIRED FOR INTERPOLATION IS DRY OR INACTIVE (OBS2BAS7SE)

 HEAD WILL BE SAVED ON UNIT   51 AT END OF TIME STEP    1, STRESS PERIOD    1
1
  VOLUMETRIC BUDGET FOR ENTIRE MODEL AT END OF TIME STEP    1, STRESS PERIOD   1
  ------------------------------------------------------------------------------

     CUMULATIVE VOLUMES      L**3       RATES FOR THIS TIME STEP      L**3/T
     ------------------                 ------------------------

           IN:                                      IN:
           ---                                      ---
             STORAGE     =           0.0000               STORAGE     =           0.0000
       CONSTANT HEAD     =           0.0000         CONSTANT HEAD     =           0.0000
               WELLS     =           0.0000                 WELLS     =           0.0000
      STREAM LEAKAGE     =      273412.7812        STREAM LEAKAGE     =      273412.7812
       LAKE  SEEPAGE     =       99126.2500         LAKE  SEEPAGE     =       99126.2500
        UZF RECHARGE     =      810194.3750          UZF RECHARGE     =      810194.3750
               GW ET     =           0.0000                 GW ET     =           0.0000
     SURFACE LEAKAGE     =           0.0000       SURFACE LEAKAGE     =           0.0000

                TOTAL IN =     1182733.3750                  TOTAL IN =     1182733.3750

          OUT:                                     OUT:
          ----                                     ----
             STORAGE     =           0.0000               STORAGE     =           0.0000
       CONSTANT HEAD     =           0.0000         CONSTANT HEAD     =           0.0000
               WELLS     =      171269.6094                 WELLS     =      171269.6094
      STREAM LEAKAGE     =      737837.6250        STREAM LEAKAGE     =      737837.6250
       LAKE  SEEPAGE     =        4669.3223         LAKE  SEEPAGE     =        4669.3223
        UZF RECHARGE     =           0.0000          UZF RECHARGE     =           0.0000
               GW ET     =       74273.4062                 GW ET     =       74273.4062
     SURFACE LEAKAGE     =      194732.0312       SURFACE LEAKAGE     =      194732.0312

               TOTAL OUT =     1182782.0000                 TOTAL OUT =     1182782.0000

                IN - OUT =         -48.6250                  IN - OUT =         -48.6250

     PERCENT DISCREPANCY =          -0.00         PERCENT DISCREPANCY =          -0.00






         TIME SUMMARY AT END OF TIME STEP    1 IN STRESS PERIOD    1
                    SECONDS     MINUTES      HOURS       DAYS        YEARS
                    -----------------------------------------------------------
   TIME STEP LENGTH  86400.      1440.0      24.000      1.0000     2.73785E-03
 STRESS PERIOD TIME  86400.      1440.0      24.000      1.0000     2.73785E-03
         TOTAL TIME  86400.      1440.0      24.000      1.0000     2.73785E-03
1

 HEAD AND DRAWDOWN OBSERVATIONS
 OBSERVATION       OBSERVED           SIMULATED
   NAME              VALUE              VALUE             DIFFERENCE
 --------------------------------------------------------------------
 HO_0            60.713100433        95.834709167       -35.121608734    
 HO_1            321.51519775        256.18212891        65.333068848    
 HO_2            92.147499084        53.070034027        39.077465057    
 HO_3            43.852298737        37.097831726        6.7544670105    
 HO_4            1.1755000353        1.3710930347      -0.19559299946    
 HO_5            2.3805000782        24.013683319       -21.633182526    
 HO_6            60.054698944        49.725173950        10.329524994    
 HO_7            190.30929565        120.80994415        69.499351501    
 HO_8            42.330600739        44.318325043       -1.9877243042    
 HO_9            52.021701813        38.852691650        13.169010162    
 HO_10           51.313800812        31.796741486        19.517059326    
 HO_11           26.004400253        28.342363358       -2.3379631042    
 HO_12           15.508199692        14.743244171       0.76495552063    
 HO_13           380.53979492        290.67083740        89.868957520    
 HO_14           14.057399750        47.004600525       -32.947200775    
 HO_15           60.515201569        62.465919495       -1.9507179260    
 HO_16           6.1166000366        10.231081009       -4.1144809723    
 HO_17           38.313400269        49.690845490       -11.377445221    
 HO_18           38.800998688        43.938388824       -5.1373901367    
 HO_19           27.794700623        25.342618942        2.4520816803    
 HO_20           18.714700699        24.307439804       -5.5927391052    
 HO_21           5.3654999733        21.118865967       -15.753366470    
 HO_22           12.701899529        20.769454956       -8.0675554276    
 HO_23           12.933799744        20.722803116       -7.7890033722    
 HO_24           12.055999756        20.791265488       -8.7352657318    
 HO_25           16.898500443        20.326320648       -3.4278202057    
 HO_26           17.490800858        22.013551712       -4.5227508545    
 HO_27           17.896400452        18.839351654      -0.94295120239    
 HO_28           20.446699142        25.836235046       -5.3895359039    
 HO_29           38.525600433        53.266365051       -14.740764618    
 HO_30           12.826000214        72.915260315       -60.089260101    
 HO_31           35.315700531        51.805698395       -16.489997864    
 HO_32           44.568099976        47.166957855       -2.5988578796    
 HO_33           38.023200989        51.234142303       -13.210941315    
 HO_34           4.7414999008        9.7905750275       -5.0490751266    
 HO_35           12.469300270        22.920173645       -10.450873375    
 HO_36           131.84179688        126.31148529        5.5303115845    
 HO_37           125.17939758        132.65301514       -7.4736175537    
 HO_38           64.102798462        65.180252075       -1.0774536133    
 HO_39           58.277801514        61.967784882       -3.6899833679    
 HO_40           95.899200439        80.200592041        15.698608398    
 HO_41           44.527000427        49.285312653       -4.7583122253    
 HO_42           57.997299194        45.002216339        12.995082855    
 HO_43           52.448501587        52.905929565      -0.45742797852    
 HO_44           86.345397949        91.988845825       -5.6434478760    
 HO_45           101.79329681        99.563743591        2.2295532227    
 HO_46           337.27639771        215.27755737        121.99884033    
 HO_47           52.812698364        52.950557709      -0.13785934448    
 HO_48           53.846801758        53.077014923       0.76978683472    
 HO_49           79.176002502        87.275810242       -8.0998077393    
 HO_50           83.173797607        64.672248840        18.501548767    
 HO_51           85.943397522        84.550025940        1.3933715820    
 HO_52           52.555400848        62.146965027       -9.5915641785    
 HO_53           70.512397766        80.499008179       -9.9866104126    
 HO_54           49.913398743        51.410339355       -1.4969406128    
 HO_55           49.634498596        55.028076172       -5.3935775757    
 HO_56           43.700199127        48.158142090       -4.4579429626    
 HO_57           47.038299561        51.492717743       -4.4544181824    
 HO_58           48.792400360        51.989585876       -3.1971855164    
 HO_59           49.946998596        52.653369904       -2.7063713074    
 HO_60           60.305000305        58.288322449        2.0166778564    
 HO_61           58.064800262        56.627296448        1.4375038147    
 HO_62           342.96099854        355.37792969       -12.416931152    
 HO_63           140.08610535        146.98883057       -6.9027252197    
 HO_64           336.10299683        280.09808350        56.004913330    
 HO_65           147.78210449        150.44686890       -2.6647644043    
 HO_66           149.23269653        150.76499939       -1.5323028564    
 HO_67           144.21189880        148.74349976       -4.5316009521    
 HO_68           143.36560059        148.74349976       -5.3778991699    
 HO_69           553.65997314        515.21783447        38.442138672    
 HO_70           238.96319580        249.84107971       -10.877883911    
 HO_71           234.05749512        279.02120972       -44.963714600    
 HO_72           219.53829956        238.48126221       -18.942962646    
 HO_73           220.83050537        237.36817932       -16.537673950    
 HO_74           256.07409668        259.40402222       -3.3299255371    
 HO_75           229.42480469        233.60005188       -4.1752471924    
 HO_76           230.24800110        231.14407349      -0.89607238770    
 HO_77           226.52009583        230.20484924       -3.6847534180    
 HO_78           258.18630981        251.95010376        6.2362060547    
 HO_79           220.44960022        230.14559937       -9.6959991455    
 HO_80           217.59480286        219.94161987       -2.3468170166    
 HO_81           205.73699951        219.16247559       -13.425476074    
 HO_82           199.04200745        220.37141418       -21.329406738    
 HO_83           204.35380554        208.33842468       -3.9846191406    
 HO_84           219.51489258        214.85810852        4.6567840576    
 HO_85           237.57690430        202.22251892        35.354385376    
 HO_86           232.42109680        201.24284363        31.178253174    
 HO_87           238.89169312        201.15098572        37.740707397    
 HO_88           189.36000061        196.64744568       -7.2874450684    
 HO_89           200.19979858        196.77537537        3.4244232178    
 HO_90           199.72779846        194.48178101        5.2460174561    
 HO_91           196.18760681        195.13288879        1.0547180176    
 HO_92           184.28210449        182.29071045        1.9913940430    
 HO_93           165.55059814        173.02839661       -7.4777984619    
 HO_94           119.11579895        171.38281250       -52.267013550    
 HO_95           161.82510376        158.17651367        3.6485900879    
 HO_96           155.51350403        160.92538452       -5.4118804932    
 HO_97           162.74639893        163.85630798       -1.1099090576    
 HO_98           196.15400696        195.20779419       0.94621276855    
 HO_99           160.18150330        167.03950500       -6.8580017090    
 HO_100          161.90060425        167.09327698       -5.1926727295    
 HO_101          176.05250549        179.36524963       -3.3127441406    
 HO_102          169.02679443        182.85618591       -13.829391479    
 HO_103          167.77110291        183.23223877       -15.461135864    
 HO_104          166.30349731        177.01335144       -10.709854126    
 HO_105          169.64990234        180.01255798       -10.362655640    
 HO_106          170.87240601        175.95782471       -5.0854187012    
 HO_107          171.62069702        177.52667236       -5.9059753418    
 HO_108          170.51379395        177.93949890       -7.4257049561    
 HO_109          171.23359680        177.48793030       -6.2543334961    
 HO_110          171.66180420        177.80252075       -6.1407165527    
 HO_111          168.60009766        181.26162720       -12.661529541    
 HO_112          171.88400269        177.04214478       -5.1581420898    
 HO_113          248.59339905        249.49929810      -0.90589904785    
 HO_114          237.55070496        243.21426392       -5.6635589600    
 HO_115          245.39030457        239.52862549        5.8616790771    
 HO_116          233.65969849        230.47299194        3.1867065430    
 HO_117          239.38380432        230.28359985        9.1002044678    
 HO_118          250.39559937        292.45257568       -42.056976318    
 HO_119          237.75010681        254.03878784       -16.288681030    
 HO_120          315.90390015        252.67669678        63.227203369    
 HO_121          261.98168945        246.55261230        15.429077148    
 HO_122          266.22531128        285.54370117       -19.318389893    
 HO_123          273.72229004        237.69198608        36.030303955    
 HO_124          236.40899658        235.26388550        1.1451110840    
 HO_125          222.76829529        221.79734802       0.97094726562    
 HO_126          181.57699585        219.32168579       -37.744689941    
 HO_127          245.48440552        246.82028198       -1.3358764648    
 HO_128          202.23950195        208.65380859       -6.4143066406    
 HO_129          229.00079346        228.91909790       8.16955566406E-02
 HO_130          209.31939697        216.88320923       -7.5638122559    
 HO_131          239.66839600        240.84532166       -1.1769256592    
 HO_132          239.43040466        240.35179138      -0.92138671875    
 HO_133          212.78489685        212.30989075       0.47500610352    
 HO_134          216.19380188        223.26338196       -7.0695800781    
 HO_135          235.84030151        239.80612183       -3.9658203125    
 HO_136          221.04710388        216.44499207        4.6021118164    
 HO_137          240.23829651        218.47001648        21.768280029    
 HO_138          238.40849304        216.90289307        21.505599976    
 HO_139          243.41200256        235.79382324        7.6181793213    
 HO_140          216.59089661        241.33100891       -24.740112305    
 HO_141          246.85749817        243.29324341        3.5642547607    
 HO_142          219.97979736        220.26683044      -0.28703308105    
 HO_143          235.41929626        220.05464172        15.364654541    
 HO_144          261.61441040        253.61946106        7.9949493408    
 HO_145          258.69018555        253.76631165        4.9238739014    
 HO_146          223.72779846        214.65196228        9.0758361816    
 HO_147          216.57719421        217.73432922       -1.1571350098    
 HO_148          248.27180481        228.90524292        19.366561890    
 HO_149          250.71629333        230.66091919        20.055374146    
 HO_150          189.68339539        189.64131165       4.20837402344E-02
 HO_151          184.06950378        186.90760803       -2.8381042480    
 HO_152          180.04690552        190.46719360       -10.420288086    
 HO_153          177.78630066        190.46719360       -12.680892944    
 HO_154          177.56889343        190.46719360       -12.898300171    
 HO_155          177.36160278        190.46719360       -13.105590820    
 HO_156          201.25010681        217.21376038       -15.963653564    
 HO_157          187.11369324        217.21376038       -30.100067139    
 HO_158          196.24949646        217.21376038       -20.964263916    
 HO_159          296.00201416        320.04629517       -24.044281006    
 HO_160          211.04400635        221.63491821       -10.590911865    
 HO_161          219.07040405        213.46308899        5.6073150635    
 HO_162          215.00950623        213.95877075        1.0507354736    
 HO_163          231.48590088        232.56491089       -1.0790100098    
 HO_164          222.93569946        219.34501648        3.5906829834    
 HO_165          271.63061523        288.84869385       -17.218078613    
 HO_166          275.42590332        274.32110596        1.1047973633    
 HO_167          291.70779419        288.70153809        3.0062561035    
 HO_168          291.21701050        288.41012573        2.8068847656    

 HEAD/DRAWDOWN SUM OF SQUARED DIFFERENCE:    7.54894E+04


 Run end date and time (yyyy/mm/dd hh:mm:ss): 2019/11/07  8:56:51
 Elapsed run time: 46.738 Seconds

