D:\condor\execute\dir_8640\model\slave_dir\lak_utils.py:46: DeprecationWarning: invalid escape sequence \m
  lake_data = np.load(".\mf_dataset\lake_data.npy", allow_pickle = 'TRUE')
GSFLOW MODFLOW main             gsflow_modflow      2021-02-18
UZF-NWT Package                 gwf2uzf1_NWT        2020-12-28
SFR-NWT Package                 gwf2sfr7_NWT        2020-09-30
LAK-NWT Package                 gwf2lak7_NWT        2020-09-30
GSFLOW MODFLOW main             gsflow_modflow      2021-02-18
UZF-NWT Package                 gwf2uzf1_NWT        2020-12-28
SFR-NWT Package                 gwf2sfr7_NWT        2020-09-30
LAK-NWT Package                 gwf2lak7_NWT        2020-09-30
GSFLOW MODFLOW main             gsflow_modflow      2021-02-18
UZF-NWT Package                 gwf2uzf1_NWT        2020-12-28
SFR-NWT Package                 gwf2sfr7_NWT        2020-09-30
LAK-NWT Package                 gwf2lak7_NWT        2020-09-30
GSFLOW MODFLOW main             gsflow_modflow      2021-02-18
UZF-NWT Package                 gwf2uzf1_NWT        2020-12-28
SFR-NWT Package                 gwf2sfr7_NWT        2020-09-30
LAK-NWT Package                 gwf2lak7_NWT        2020-09-30
GSFLOW MODFLOW main             gsflow_modflow      2021-02-18
UZF-NWT Package                 gwf2uzf1_NWT        2020-12-28
SFR-NWT Package                 gwf2sfr7_NWT        2020-09-30
LAK-NWT Package                 gwf2lak7_NWT        2020-09-30
GSFLOW MODFLOW main             gsflow_modflow      2021-02-18
UZF-NWT Package                 gwf2uzf1_NWT        2020-12-28
SFR-NWT Package                 gwf2sfr7_NWT        2020-09-30
LAK-NWT Package                 gwf2lak7_NWT        2020-09-30
GSFLOW MODFLOW main             gsflow_modflow      2021-02-18
UZF-NWT Package                 gwf2uzf1_NWT        2020-12-28
SFR-NWT Package                 gwf2sfr7_NWT        2020-09-30
LAK-NWT Package                 gwf2lak7_NWT        2020-09-30
GSFLOW MODFLOW main             gsflow_modflow      2021-02-18
UZF-NWT Package                 gwf2uzf1_NWT        2020-12-28
SFR-NWT Package                 gwf2sfr7_NWT        2020-09-30
LAK-NWT Package                 gwf2lak7_NWT        2020-09-30
GSFLOW MODFLOW main             gsflow_modflow      2021-02-18
UZF-NWT Package                 gwf2uzf1_NWT        2020-12-28
SFR-NWT Package                 gwf2sfr7_NWT        2020-09-30
LAK-NWT Package                 gwf2lak7_NWT        2020-09-30
GSFLOW MODFLOW main             gsflow_modflow      2021-02-18
UZF-NWT Package                 gwf2uzf1_NWT        2020-12-28
SFR-NWT Package                 gwf2sfr7_NWT        2020-09-30
LAK-NWT Package                 gwf2lak7_NWT        2020-09-30
GSFLOW MODFLOW main             gsflow_modflow      2021-02-18
UZF-NWT Package                 gwf2uzf1_NWT        2020-12-28
SFR-NWT Package                 gwf2sfr7_NWT        2020-09-30
LAK-NWT Package                 gwf2lak7_NWT        2020-09-30
GSFLOW MODFLOW main             gsflow_modflow      2021-02-18
UZF-NWT Package                 gwf2uzf1_NWT        2020-12-28
SFR-NWT Package                 gwf2sfr7_NWT        2020-09-30
LAK-NWT Package                 gwf2lak7_NWT        2020-09-30
GSFLOW MODFLOW main             gsflow_modflow      2021-02-18
UZF-NWT Package                 gwf2uzf1_NWT        2020-12-28
SFR-NWT Package                 gwf2sfr7_NWT        2020-09-30
LAK-NWT Package                 gwf2lak7_NWT        2020-09-30
GSFLOW MODFLOW main             gsflow_modflow      2021-02-18
UZF-NWT Package                 gwf2uzf1_NWT        2020-12-28
SFR-NWT Package                 gwf2sfr7_NWT        2020-09-30
LAK-NWT Package                 gwf2lak7_NWT        2020-09-30
GSFLOW MODFLOW main             gsflow_modflow      2021-02-18
UZF-NWT Package                 gwf2uzf1_NWT        2020-12-28
SFR-NWT Package                 gwf2sfr7_NWT        2020-09-30
LAK-NWT Package                 gwf2lak7_NWT        2020-09-30
GSFLOW MODFLOW main             gsflow_modflow      2021-02-18
UZF-NWT Package                 gwf2uzf1_NWT        2020-12-28
SFR-NWT Package                 gwf2sfr7_NWT        2020-09-30
LAK-NWT Package                 gwf2lak7_NWT        2020-09-30
GSFLOW MODFLOW main             gsflow_modflow      2021-02-18
UZF-NWT Package                 gwf2uzf1_NWT        2020-12-28
SFR-NWT Package                 gwf2sfr7_NWT        2020-09-30
LAK-NWT Package                 gwf2lak7_NWT        2020-09-30
GSFLOW MODFLOW main             gsflow_modflow      2021-02-18
UZF-NWT Package                 gwf2uzf1_NWT        2020-12-28
SFR-NWT Package                 gwf2sfr7_NWT        2020-09-30
LAK-NWT Package                 gwf2lak7_NWT        2020-09-30
Traceback (most recent call last):
  File "D:\condor\execute\dir_8640\model\slave_dir\ss_forward_model_20210813.py", line 166, in <module>
    run(input_file= 'input_param.csv')
  File "D:\condor\execute\dir_8640\model\slave_dir\ss_forward_model_20210813.py", line 80, in run
    Sim.mf = flopy.modflow.Modflow.load(os.path.basename(Sim.name_file), model_ws= os.path.dirname(Sim.name_file),
  File "D:\condor\execute\dir_8640\Miniconda3\lib\site-packages\flopy\modflow\mf.py", line 909, in load
    item.package.load(
  File "D:\condor\execute\dir_8640\Miniconda3\lib\site-packages\flopy\modflow\mfuzf1.py", line 1031, in load
    load_util2d("vks", np.float32)
  File "D:\condor\execute\dir_8640\Miniconda3\lib\site-packages\flopy\modflow\mfuzf1.py", line 1018, in load_util2d
    arrays[name] = Util2d.load(
  File "D:\condor\execute\dir_8640\Miniconda3\lib\site-packages\flopy\utils\util_array.py", line 2868, in load
    cr_dict = Util2d.parse_control_record(
  File "D:\condor\execute\dir_8640\Miniconda3\lib\site-packages\flopy\utils\util_array.py", line 3013, in parse_control_record
    if str(raw[0].lower()) in str(free_fmt):
IndexError: list index out of range
Traceback (most recent call last):
  File "D:\condor\execute\dir_8640\model\slave_dir\ss_forward_model_20210813.py", line 166, in <module>
    run(input_file= 'input_param.csv')
  File "D:\condor\execute\dir_8640\model\slave_dir\ss_forward_model_20210813.py", line 80, in run
    Sim.mf = flopy.modflow.Modflow.load(os.path.basename(Sim.name_file), model_ws= os.path.dirname(Sim.name_file),
  File "D:\condor\execute\dir_8640\Miniconda3\lib\site-packages\flopy\modflow\mf.py", line 909, in load
    item.package.load(
  File "D:\condor\execute\dir_8640\Miniconda3\lib\site-packages\flopy\modflow\mfuzf1.py", line 1031, in load
    load_util2d("vks", np.float32)
  File "D:\condor\execute\dir_8640\Miniconda3\lib\site-packages\flopy\modflow\mfuzf1.py", line 1018, in load_util2d
    arrays[name] = Util2d.load(
  File "D:\condor\execute\dir_8640\Miniconda3\lib\site-packages\flopy\utils\util_array.py", line 2868, in load
    cr_dict = Util2d.parse_control_record(
  File "D:\condor\execute\dir_8640\Miniconda3\lib\site-packages\flopy\utils\util_array.py", line 3013, in parse_control_record
    if str(raw[0].lower()) in str(free_fmt):
IndexError: list index out of range
Traceback (most recent call last):
  File "D:\condor\execute\dir_8640\model\slave_dir\ss_forward_model_20210813.py", line 166, in <module>
    run(input_file= 'input_param.csv')
  File "D:\condor\execute\dir_8640\model\slave_dir\ss_forward_model_20210813.py", line 80, in run
    Sim.mf = flopy.modflow.Modflow.load(os.path.basename(Sim.name_file), model_ws= os.path.dirname(Sim.name_file),
  File "D:\condor\execute\dir_8640\Miniconda3\lib\site-packages\flopy\modflow\mf.py", line 909, in load
    item.package.load(
  File "D:\condor\execute\dir_8640\Miniconda3\lib\site-packages\flopy\modflow\mfuzf1.py", line 1031, in load
    load_util2d("vks", np.float32)
  File "D:\condor\execute\dir_8640\Miniconda3\lib\site-packages\flopy\modflow\mfuzf1.py", line 1018, in load_util2d
    arrays[name] = Util2d.load(
  File "D:\condor\execute\dir_8640\Miniconda3\lib\site-packages\flopy\utils\util_array.py", line 2868, in load
    cr_dict = Util2d.parse_control_record(
  File "D:\condor\execute\dir_8640\Miniconda3\lib\site-packages\flopy\utils\util_array.py", line 3013, in parse_control_record
    if str(raw[0].lower()) in str(free_fmt):
IndexError: list index out of range
Traceback (most recent call last):
  File "D:\condor\execute\dir_8640\model\slave_dir\ss_forward_model_20210813.py", line 166, in <module>
    run(input_file= 'input_param.csv')
  File "D:\condor\execute\dir_8640\model\slave_dir\ss_forward_model_20210813.py", line 80, in run
    Sim.mf = flopy.modflow.Modflow.load(os.path.basename(Sim.name_file), model_ws= os.path.dirname(Sim.name_file),
  File "D:\condor\execute\dir_8640\Miniconda3\lib\site-packages\flopy\modflow\mf.py", line 909, in load
    item.package.load(
  File "D:\condor\execute\dir_8640\Miniconda3\lib\site-packages\flopy\modflow\mfuzf1.py", line 1031, in load
    load_util2d("vks", np.float32)
  File "D:\condor\execute\dir_8640\Miniconda3\lib\site-packages\flopy\modflow\mfuzf1.py", line 1018, in load_util2d
    arrays[name] = Util2d.load(
  File "D:\condor\execute\dir_8640\Miniconda3\lib\site-packages\flopy\utils\util_array.py", line 2868, in load
    cr_dict = Util2d.parse_control_record(
  File "D:\condor\execute\dir_8640\Miniconda3\lib\site-packages\flopy\utils\util_array.py", line 3013, in parse_control_record
    if str(raw[0].lower()) in str(free_fmt):
IndexError: list index out of range
Traceback (most recent call last):
  File "D:\condor\execute\dir_8640\model\slave_dir\ss_forward_model_20210813.py", line 166, in <module>
    run(input_file= 'input_param.csv')
  File "D:\condor\execute\dir_8640\model\slave_dir\ss_forward_model_20210813.py", line 80, in run
    Sim.mf = flopy.modflow.Modflow.load(os.path.basename(Sim.name_file), model_ws= os.path.dirname(Sim.name_file),
  File "D:\condor\execute\dir_8640\Miniconda3\lib\site-packages\flopy\modflow\mf.py", line 909, in load
    item.package.load(
  File "D:\condor\execute\dir_8640\Miniconda3\lib\site-packages\flopy\modflow\mfuzf1.py", line 1031, in load
    load_util2d("vks", np.float32)
  File "D:\condor\execute\dir_8640\Miniconda3\lib\site-packages\flopy\modflow\mfuzf1.py", line 1018, in load_util2d
    arrays[name] = Util2d.load(
  File "D:\condor\execute\dir_8640\Miniconda3\lib\site-packages\flopy\utils\util_array.py", line 2868, in load
    cr_dict = Util2d.parse_control_record(
  File "D:\condor\execute\dir_8640\Miniconda3\lib\site-packages\flopy\utils\util_array.py", line 3013, in parse_control_record
    if str(raw[0].lower()) in str(free_fmt):
IndexError: list index out of range
Traceback (most recent call last):
  File "D:\condor\execute\dir_8640\model\slave_dir\ss_forward_model_20210813.py", line 166, in <module>
    run(input_file= 'input_param.csv')
  File "D:\condor\execute\dir_8640\model\slave_dir\ss_forward_model_20210813.py", line 80, in run
    Sim.mf = flopy.modflow.Modflow.load(os.path.basename(Sim.name_file), model_ws= os.path.dirname(Sim.name_file),
  File "D:\condor\execute\dir_8640\Miniconda3\lib\site-packages\flopy\modflow\mf.py", line 909, in load
    item.package.load(
  File "D:\condor\execute\dir_8640\Miniconda3\lib\site-packages\flopy\modflow\mfuzf1.py", line 1031, in load
    load_util2d("vks", np.float32)
  File "D:\condor\execute\dir_8640\Miniconda3\lib\site-packages\flopy\modflow\mfuzf1.py", line 1018, in load_util2d
    arrays[name] = Util2d.load(
  File "D:\condor\execute\dir_8640\Miniconda3\lib\site-packages\flopy\utils\util_array.py", line 2868, in load
    cr_dict = Util2d.parse_control_record(
  File "D:\condor\execute\dir_8640\Miniconda3\lib\site-packages\flopy\utils\util_array.py", line 3013, in parse_control_record
    if str(raw[0].lower()) in str(free_fmt):
IndexError: list index out of range
Traceback (most recent call last):
  File "D:\condor\execute\dir_8640\model\slave_dir\ss_forward_model_20210813.py", line 166, in <module>
    run(input_file= 'input_param.csv')
  File "D:\condor\execute\dir_8640\model\slave_dir\ss_forward_model_20210813.py", line 80, in run
    Sim.mf = flopy.modflow.Modflow.load(os.path.basename(Sim.name_file), model_ws= os.path.dirname(Sim.name_file),
  File "D:\condor\execute\dir_8640\Miniconda3\lib\site-packages\flopy\modflow\mf.py", line 909, in load
    item.package.load(
  File "D:\condor\execute\dir_8640\Miniconda3\lib\site-packages\flopy\modflow\mfuzf1.py", line 1031, in load
    load_util2d("vks", np.float32)
  File "D:\condor\execute\dir_8640\Miniconda3\lib\site-packages\flopy\modflow\mfuzf1.py", line 1018, in load_util2d
    arrays[name] = Util2d.load(
  File "D:\condor\execute\dir_8640\Miniconda3\lib\site-packages\flopy\utils\util_array.py", line 2868, in load
    cr_dict = Util2d.parse_control_record(
  File "D:\condor\execute\dir_8640\Miniconda3\lib\site-packages\flopy\utils\util_array.py", line 3013, in parse_control_record
    if str(raw[0].lower()) in str(free_fmt):
IndexError: list index out of range
Traceback (most recent call last):
  File "D:\condor\execute\dir_8640\model\slave_dir\ss_forward_model_20210813.py", line 166, in <module>
    run(input_file= 'input_param.csv')
  File "D:\condor\execute\dir_8640\model\slave_dir\ss_forward_model_20210813.py", line 80, in run
    Sim.mf = flopy.modflow.Modflow.load(os.path.basename(Sim.name_file), model_ws= os.path.dirname(Sim.name_file),
  File "D:\condor\execute\dir_8640\Miniconda3\lib\site-packages\flopy\modflow\mf.py", line 909, in load
    item.package.load(
  File "D:\condor\execute\dir_8640\Miniconda3\lib\site-packages\flopy\modflow\mfuzf1.py", line 1031, in load
    load_util2d("vks", np.float32)
  File "D:\condor\execute\dir_8640\Miniconda3\lib\site-packages\flopy\modflow\mfuzf1.py", line 1018, in load_util2d
    arrays[name] = Util2d.load(
  File "D:\condor\execute\dir_8640\Miniconda3\lib\site-packages\flopy\utils\util_array.py", line 2868, in load
    cr_dict = Util2d.parse_control_record(
  File "D:\condor\execute\dir_8640\Miniconda3\lib\site-packages\flopy\utils\util_array.py", line 3013, in parse_control_record
    if str(raw[0].lower()) in str(free_fmt):
IndexError: list index out of range
Traceback (most recent call last):
  File "D:\condor\execute\dir_8640\model\slave_dir\ss_forward_model_20210813.py", line 166, in <module>
    run(input_file= 'input_param.csv')
  File "D:\condor\execute\dir_8640\model\slave_dir\ss_forward_model_20210813.py", line 80, in run
    Sim.mf = flopy.modflow.Modflow.load(os.path.basename(Sim.name_file), model_ws= os.path.dirname(Sim.name_file),
  File "D:\condor\execute\dir_8640\Miniconda3\lib\site-packages\flopy\modflow\mf.py", line 909, in load
    item.package.load(
  File "D:\condor\execute\dir_8640\Miniconda3\lib\site-packages\flopy\modflow\mfuzf1.py", line 1031, in load
    load_util2d("vks", np.float32)
  File "D:\condor\execute\dir_8640\Miniconda3\lib\site-packages\flopy\modflow\mfuzf1.py", line 1018, in load_util2d
    arrays[name] = Util2d.load(
  File "D:\condor\execute\dir_8640\Miniconda3\lib\site-packages\flopy\utils\util_array.py", line 2868, in load
    cr_dict = Util2d.parse_control_record(
  File "D:\condor\execute\dir_8640\Miniconda3\lib\site-packages\flopy\utils\util_array.py", line 3013, in parse_control_record
    if str(raw[0].lower()) in str(free_fmt):
IndexError: list index out of range
Traceback (most recent call last):
  File "D:\condor\execute\dir_8640\model\slave_dir\ss_forward_model_20210813.py", line 166, in <module>
    run(input_file= 'input_param.csv')
  File "D:\condor\execute\dir_8640\model\slave_dir\ss_forward_model_20210813.py", line 80, in run
    Sim.mf = flopy.modflow.Modflow.load(os.path.basename(Sim.name_file), model_ws= os.path.dirname(Sim.name_file),
  File "D:\condor\execute\dir_8640\Miniconda3\lib\site-packages\flopy\modflow\mf.py", line 909, in load
    item.package.load(
  File "D:\condor\execute\dir_8640\Miniconda3\lib\site-packages\flopy\modflow\mfuzf1.py", line 1031, in load
    load_util2d("vks", np.float32)
  File "D:\condor\execute\dir_8640\Miniconda3\lib\site-packages\flopy\modflow\mfuzf1.py", line 1018, in load_util2d
    arrays[name] = Util2d.load(
  File "D:\condor\execute\dir_8640\Miniconda3\lib\site-packages\flopy\utils\util_array.py", line 2868, in load
    cr_dict = Util2d.parse_control_record(
  File "D:\condor\execute\dir_8640\Miniconda3\lib\site-packages\flopy\utils\util_array.py", line 3013, in parse_control_record
    if str(raw[0].lower()) in str(free_fmt):
IndexError: list index out of range
Traceback (most recent call last):
  File "D:\condor\execute\dir_8640\model\slave_dir\ss_forward_model_20210813.py", line 166, in <module>
    run(input_file= 'input_param.csv')
  File "D:\condor\execute\dir_8640\model\slave_dir\ss_forward_model_20210813.py", line 80, in run
    Sim.mf = flopy.modflow.Modflow.load(os.path.basename(Sim.name_file), model_ws= os.path.dirname(Sim.name_file),
  File "D:\condor\execute\dir_8640\Miniconda3\lib\site-packages\flopy\modflow\mf.py", line 909, in load
    item.package.load(
  File "D:\condor\execute\dir_8640\Miniconda3\lib\site-packages\flopy\modflow\mfuzf1.py", line 1031, in load
    load_util2d("vks", np.float32)
  File "D:\condor\execute\dir_8640\Miniconda3\lib\site-packages\flopy\modflow\mfuzf1.py", line 1018, in load_util2d
    arrays[name] = Util2d.load(
  File "D:\condor\execute\dir_8640\Miniconda3\lib\site-packages\flopy\utils\util_array.py", line 2868, in load
    cr_dict = Util2d.parse_control_record(
  File "D:\condor\execute\dir_8640\Miniconda3\lib\site-packages\flopy\utils\util_array.py", line 3013, in parse_control_record
    if str(raw[0].lower()) in str(free_fmt):
IndexError: list index out of range
Traceback (most recent call last):
  File "D:\condor\execute\dir_8640\model\slave_dir\ss_forward_model_20210813.py", line 166, in <module>
    run(input_file= 'input_param.csv')
  File "D:\condor\execute\dir_8640\model\slave_dir\ss_forward_model_20210813.py", line 80, in run
    Sim.mf = flopy.modflow.Modflow.load(os.path.basename(Sim.name_file), model_ws= os.path.dirname(Sim.name_file),
  File "D:\condor\execute\dir_8640\Miniconda3\lib\site-packages\flopy\modflow\mf.py", line 909, in load
    item.package.load(
  File "D:\condor\execute\dir_8640\Miniconda3\lib\site-packages\flopy\modflow\mfuzf1.py", line 1031, in load
    load_util2d("vks", np.float32)
  File "D:\condor\execute\dir_8640\Miniconda3\lib\site-packages\flopy\modflow\mfuzf1.py", line 1018, in load_util2d
    arrays[name] = Util2d.load(
  File "D:\condor\execute\dir_8640\Miniconda3\lib\site-packages\flopy\utils\util_array.py", line 2868, in load
    cr_dict = Util2d.parse_control_record(
  File "D:\condor\execute\dir_8640\Miniconda3\lib\site-packages\flopy\utils\util_array.py", line 3013, in parse_control_record
    if str(raw[0].lower()) in str(free_fmt):
IndexError: list index out of range
Traceback (most recent call last):
  File "D:\condor\execute\dir_8640\model\slave_dir\ss_forward_model_20210813.py", line 166, in <module>
    run(input_file= 'input_param.csv')
  File "D:\condor\execute\dir_8640\model\slave_dir\ss_forward_model_20210813.py", line 80, in run
    Sim.mf = flopy.modflow.Modflow.load(os.path.basename(Sim.name_file), model_ws= os.path.dirname(Sim.name_file),
  File "D:\condor\execute\dir_8640\Miniconda3\lib\site-packages\flopy\modflow\mf.py", line 909, in load
    item.package.load(
  File "D:\condor\execute\dir_8640\Miniconda3\lib\site-packages\flopy\modflow\mfuzf1.py", line 1031, in load
    load_util2d("vks", np.float32)
  File "D:\condor\execute\dir_8640\Miniconda3\lib\site-packages\flopy\modflow\mfuzf1.py", line 1018, in load_util2d
    arrays[name] = Util2d.load(
  File "D:\condor\execute\dir_8640\Miniconda3\lib\site-packages\flopy\utils\util_array.py", line 2868, in load
    cr_dict = Util2d.parse_control_record(
  File "D:\condor\execute\dir_8640\Miniconda3\lib\site-packages\flopy\utils\util_array.py", line 3013, in parse_control_record
    if str(raw[0].lower()) in str(free_fmt):
IndexError: list index out of range
Traceback (most recent call last):
  File "D:\condor\execute\dir_8640\model\slave_dir\ss_forward_model_20210813.py", line 166, in <module>
    run(input_file= 'input_param.csv')
  File "D:\condor\execute\dir_8640\model\slave_dir\ss_forward_model_20210813.py", line 80, in run
    Sim.mf = flopy.modflow.Modflow.load(os.path.basename(Sim.name_file), model_ws= os.path.dirname(Sim.name_file),
  File "D:\condor\execute\dir_8640\Miniconda3\lib\site-packages\flopy\modflow\mf.py", line 909, in load
    item.package.load(
  File "D:\condor\execute\dir_8640\Miniconda3\lib\site-packages\flopy\modflow\mfuzf1.py", line 1031, in load
    load_util2d("vks", np.float32)
  File "D:\condor\execute\dir_8640\Miniconda3\lib\site-packages\flopy\modflow\mfuzf1.py", line 1018, in load_util2d
    arrays[name] = Util2d.load(
  File "D:\condor\execute\dir_8640\Miniconda3\lib\site-packages\flopy\utils\util_array.py", line 2868, in load
    cr_dict = Util2d.parse_control_record(
  File "D:\condor\execute\dir_8640\Miniconda3\lib\site-packages\flopy\utils\util_array.py", line 3013, in parse_control_record
    if str(raw[0].lower()) in str(free_fmt):
IndexError: list index out of range
Traceback (most recent call last):
  File "D:\condor\execute\dir_8640\model\slave_dir\ss_forward_model_20210813.py", line 166, in <module>
    run(input_file= 'input_param.csv')
  File "D:\condor\execute\dir_8640\model\slave_dir\ss_forward_model_20210813.py", line 80, in run
    Sim.mf = flopy.modflow.Modflow.load(os.path.basename(Sim.name_file), model_ws= os.path.dirname(Sim.name_file),
  File "D:\condor\execute\dir_8640\Miniconda3\lib\site-packages\flopy\modflow\mf.py", line 909, in load
    item.package.load(
  File "D:\condor\execute\dir_8640\Miniconda3\lib\site-packages\flopy\modflow\mfuzf1.py", line 1031, in load
    load_util2d("vks", np.float32)
  File "D:\condor\execute\dir_8640\Miniconda3\lib\site-packages\flopy\modflow\mfuzf1.py", line 1018, in load_util2d
    arrays[name] = Util2d.load(
  File "D:\condor\execute\dir_8640\Miniconda3\lib\site-packages\flopy\utils\util_array.py", line 2868, in load
    cr_dict = Util2d.parse_control_record(
  File "D:\condor\execute\dir_8640\Miniconda3\lib\site-packages\flopy\utils\util_array.py", line 3013, in parse_control_record
    if str(raw[0].lower()) in str(free_fmt):
IndexError: list index out of range
Traceback (most recent call last):
  File "D:\condor\execute\dir_8640\model\slave_dir\ss_forward_model_20210813.py", line 166, in <module>
    run(input_file= 'input_param.csv')
  File "D:\condor\execute\dir_8640\model\slave_dir\ss_forward_model_20210813.py", line 80, in run
    Sim.mf = flopy.modflow.Modflow.load(os.path.basename(Sim.name_file), model_ws= os.path.dirname(Sim.name_file),
  File "D:\condor\execute\dir_8640\Miniconda3\lib\site-packages\flopy\modflow\mf.py", line 909, in load
    item.package.load(
  File "D:\condor\execute\dir_8640\Miniconda3\lib\site-packages\flopy\modflow\mfuzf1.py", line 1031, in load
    load_util2d("vks", np.float32)
  File "D:\condor\execute\dir_8640\Miniconda3\lib\site-packages\flopy\modflow\mfuzf1.py", line 1018, in load_util2d
    arrays[name] = Util2d.load(
  File "D:\condor\execute\dir_8640\Miniconda3\lib\site-packages\flopy\utils\util_array.py", line 2868, in load
    cr_dict = Util2d.parse_control_record(
  File "D:\condor\execute\dir_8640\Miniconda3\lib\site-packages\flopy\utils\util_array.py", line 3013, in parse_control_record
    if str(raw[0].lower()) in str(free_fmt):
IndexError: list index out of range
Traceback (most recent call last):
  File "D:\condor\execute\dir_8640\model\slave_dir\ss_forward_model_20210813.py", line 166, in <module>
    run(input_file= 'input_param.csv')
  File "D:\condor\execute\dir_8640\model\slave_dir\ss_forward_model_20210813.py", line 80, in run
    Sim.mf = flopy.modflow.Modflow.load(os.path.basename(Sim.name_file), model_ws= os.path.dirname(Sim.name_file),
  File "D:\condor\execute\dir_8640\Miniconda3\lib\site-packages\flopy\modflow\mf.py", line 909, in load
    item.package.load(
  File "D:\condor\execute\dir_8640\Miniconda3\lib\site-packages\flopy\modflow\mfuzf1.py", line 1031, in load
    load_util2d("vks", np.float32)
  File "D:\condor\execute\dir_8640\Miniconda3\lib\site-packages\flopy\modflow\mfuzf1.py", line 1018, in load_util2d
    arrays[name] = Util2d.load(
  File "D:\condor\execute\dir_8640\Miniconda3\lib\site-packages\flopy\utils\util_array.py", line 2868, in load
    cr_dict = Util2d.parse_control_record(
  File "D:\condor\execute\dir_8640\Miniconda3\lib\site-packages\flopy\utils\util_array.py", line 3013, in parse_control_record
    if str(raw[0].lower()) in str(free_fmt):
IndexError: list index out of range
Traceback (most recent call last):
  File "D:\condor\execute\dir_8640\model\slave_dir\ss_forward_model_20210813.py", line 166, in <module>
    run(input_file= 'input_param.csv')
  File "D:\condor\execute\dir_8640\model\slave_dir\ss_forward_model_20210813.py", line 80, in run
    Sim.mf = flopy.modflow.Modflow.load(os.path.basename(Sim.name_file), model_ws= os.path.dirname(Sim.name_file),
  File "D:\condor\execute\dir_8640\Miniconda3\lib\site-packages\flopy\modflow\mf.py", line 909, in load
    item.package.load(
  File "D:\condor\execute\dir_8640\Miniconda3\lib\site-packages\flopy\modflow\mfuzf1.py", line 1031, in load
    load_util2d("vks", np.float32)
  File "D:\condor\execute\dir_8640\Miniconda3\lib\site-packages\flopy\modflow\mfuzf1.py", line 1018, in load_util2d
    arrays[name] = Util2d.load(
  File "D:\condor\execute\dir_8640\Miniconda3\lib\site-packages\flopy\utils\util_array.py", line 2868, in load
    cr_dict = Util2d.parse_control_record(
  File "D:\condor\execute\dir_8640\Miniconda3\lib\site-packages\flopy\utils\util_array.py", line 3013, in parse_control_record
    if str(raw[0].lower()) in str(free_fmt):
IndexError: list index out of range
Traceback (most recent call last):
  File "D:\condor\execute\dir_8640\model\slave_dir\ss_forward_model_20210813.py", line 166, in <module>
    run(input_file= 'input_param.csv')
  File "D:\condor\execute\dir_8640\model\slave_dir\ss_forward_model_20210813.py", line 80, in run
    Sim.mf = flopy.modflow.Modflow.load(os.path.basename(Sim.name_file), model_ws= os.path.dirname(Sim.name_file),
  File "D:\condor\execute\dir_8640\Miniconda3\lib\site-packages\flopy\modflow\mf.py", line 909, in load
    item.package.load(
  File "D:\condor\execute\dir_8640\Miniconda3\lib\site-packages\flopy\modflow\mfuzf1.py", line 1031, in load
    load_util2d("vks", np.float32)
  File "D:\condor\execute\dir_8640\Miniconda3\lib\site-packages\flopy\modflow\mfuzf1.py", line 1018, in load_util2d
    arrays[name] = Util2d.load(
  File "D:\condor\execute\dir_8640\Miniconda3\lib\site-packages\flopy\utils\util_array.py", line 2868, in load
    cr_dict = Util2d.parse_control_record(
  File "D:\condor\execute\dir_8640\Miniconda3\lib\site-packages\flopy\utils\util_array.py", line 3013, in parse_control_record
    if str(raw[0].lower()) in str(free_fmt):
IndexError: list index out of range
Traceback (most recent call last):
  File "D:\condor\execute\dir_8640\model\slave_dir\ss_forward_model_20210813.py", line 166, in <module>
    run(input_file= 'input_param.csv')
  File "D:\condor\execute\dir_8640\model\slave_dir\ss_forward_model_20210813.py", line 80, in run
    Sim.mf = flopy.modflow.Modflow.load(os.path.basename(Sim.name_file), model_ws= os.path.dirname(Sim.name_file),
  File "D:\condor\execute\dir_8640\Miniconda3\lib\site-packages\flopy\modflow\mf.py", line 909, in load
    item.package.load(
  File "D:\condor\execute\dir_8640\Miniconda3\lib\site-packages\flopy\modflow\mfuzf1.py", line 1031, in load
    load_util2d("vks", np.float32)
  File "D:\condor\execute\dir_8640\Miniconda3\lib\site-packages\flopy\modflow\mfuzf1.py", line 1018, in load_util2d
    arrays[name] = Util2d.load(
  File "D:\condor\execute\dir_8640\Miniconda3\lib\site-packages\flopy\utils\util_array.py", line 2868, in load
    cr_dict = Util2d.parse_control_record(
  File "D:\condor\execute\dir_8640\Miniconda3\lib\site-packages\flopy\utils\util_array.py", line 3013, in parse_control_record
    if str(raw[0].lower()) in str(free_fmt):
IndexError: list index out of range
Traceback (most recent call last):
  File "D:\condor\execute\dir_8640\model\slave_dir\ss_forward_model_20210813.py", line 166, in <module>
    run(input_file= 'input_param.csv')
  File "D:\condor\execute\dir_8640\model\slave_dir\ss_forward_model_20210813.py", line 80, in run
    Sim.mf = flopy.modflow.Modflow.load(os.path.basename(Sim.name_file), model_ws= os.path.dirname(Sim.name_file),
  File "D:\condor\execute\dir_8640\Miniconda3\lib\site-packages\flopy\modflow\mf.py", line 909, in load
    item.package.load(
  File "D:\condor\execute\dir_8640\Miniconda3\lib\site-packages\flopy\modflow\mfuzf1.py", line 1031, in load
    load_util2d("vks", np.float32)
  File "D:\condor\execute\dir_8640\Miniconda3\lib\site-packages\flopy\modflow\mfuzf1.py", line 1018, in load_util2d
    arrays[name] = Util2d.load(
  File "D:\condor\execute\dir_8640\Miniconda3\lib\site-packages\flopy\utils\util_array.py", line 2868, in load
    cr_dict = Util2d.parse_control_record(
  File "D:\condor\execute\dir_8640\Miniconda3\lib\site-packages\flopy\utils\util_array.py", line 3013, in parse_control_record
    if str(raw[0].lower()) in str(free_fmt):
IndexError: list index out of range
Traceback (most recent call last):
  File "D:\condor\execute\dir_8640\model\slave_dir\ss_forward_model_20210813.py", line 166, in <module>
    run(input_file= 'input_param.csv')
  File "D:\condor\execute\dir_8640\model\slave_dir\ss_forward_model_20210813.py", line 80, in run
    Sim.mf = flopy.modflow.Modflow.load(os.path.basename(Sim.name_file), model_ws= os.path.dirname(Sim.name_file),
  File "D:\condor\execute\dir_8640\Miniconda3\lib\site-packages\flopy\modflow\mf.py", line 909, in load
    item.package.load(
  File "D:\condor\execute\dir_8640\Miniconda3\lib\site-packages\flopy\modflow\mfuzf1.py", line 1031, in load
    load_util2d("vks", np.float32)
  File "D:\condor\execute\dir_8640\Miniconda3\lib\site-packages\flopy\modflow\mfuzf1.py", line 1018, in load_util2d
    arrays[name] = Util2d.load(
  File "D:\condor\execute\dir_8640\Miniconda3\lib\site-packages\flopy\utils\util_array.py", line 2868, in load
    cr_dict = Util2d.parse_control_record(
  File "D:\condor\execute\dir_8640\Miniconda3\lib\site-packages\flopy\utils\util_array.py", line 3013, in parse_control_record
    if str(raw[0].lower()) in str(free_fmt):
IndexError: list index out of range
Traceback (most recent call last):
  File "D:\condor\execute\dir_8640\model\slave_dir\ss_forward_model_20210813.py", line 166, in <module>
    run(input_file= 'input_param.csv')
  File "D:\condor\execute\dir_8640\model\slave_dir\ss_forward_model_20210813.py", line 80, in run
    Sim.mf = flopy.modflow.Modflow.load(os.path.basename(Sim.name_file), model_ws= os.path.dirname(Sim.name_file),
  File "D:\condor\execute\dir_8640\Miniconda3\lib\site-packages\flopy\modflow\mf.py", line 909, in load
    item.package.load(
  File "D:\condor\execute\dir_8640\Miniconda3\lib\site-packages\flopy\modflow\mfuzf1.py", line 1031, in load
    load_util2d("vks", np.float32)
  File "D:\condor\execute\dir_8640\Miniconda3\lib\site-packages\flopy\modflow\mfuzf1.py", line 1018, in load_util2d
    arrays[name] = Util2d.load(
  File "D:\condor\execute\dir_8640\Miniconda3\lib\site-packages\flopy\utils\util_array.py", line 2868, in load
    cr_dict = Util2d.parse_control_record(
  File "D:\condor\execute\dir_8640\Miniconda3\lib\site-packages\flopy\utils\util_array.py", line 3013, in parse_control_record
    if str(raw[0].lower()) in str(free_fmt):
IndexError: list index out of range
Traceback (most recent call last):
  File "D:\condor\execute\dir_8640\model\slave_dir\ss_forward_model_20210813.py", line 166, in <module>
    run(input_file= 'input_param.csv')
  File "D:\condor\execute\dir_8640\model\slave_dir\ss_forward_model_20210813.py", line 80, in run
    Sim.mf = flopy.modflow.Modflow.load(os.path.basename(Sim.name_file), model_ws= os.path.dirname(Sim.name_file),
  File "D:\condor\execute\dir_8640\Miniconda3\lib\site-packages\flopy\modflow\mf.py", line 909, in load
    item.package.load(
  File "D:\condor\execute\dir_8640\Miniconda3\lib\site-packages\flopy\modflow\mfuzf1.py", line 1031, in load
    load_util2d("vks", np.float32)
  File "D:\condor\execute\dir_8640\Miniconda3\lib\site-packages\flopy\modflow\mfuzf1.py", line 1018, in load_util2d
    arrays[name] = Util2d.load(
  File "D:\condor\execute\dir_8640\Miniconda3\lib\site-packages\flopy\utils\util_array.py", line 2868, in load
    cr_dict = Util2d.parse_control_record(
  File "D:\condor\execute\dir_8640\Miniconda3\lib\site-packages\flopy\utils\util_array.py", line 3013, in parse_control_record
    if str(raw[0].lower()) in str(free_fmt):
IndexError: list index out of range
Traceback (most recent call last):
  File "D:\condor\execute\dir_8640\model\slave_dir\ss_forward_model_20210813.py", line 166, in <module>
    run(input_file= 'input_param.csv')
  File "D:\condor\execute\dir_8640\model\slave_dir\ss_forward_model_20210813.py", line 80, in run
    Sim.mf = flopy.modflow.Modflow.load(os.path.basename(Sim.name_file), model_ws= os.path.dirname(Sim.name_file),
  File "D:\condor\execute\dir_8640\Miniconda3\lib\site-packages\flopy\modflow\mf.py", line 909, in load
    item.package.load(
  File "D:\condor\execute\dir_8640\Miniconda3\lib\site-packages\flopy\modflow\mfuzf1.py", line 1031, in load
    load_util2d("vks", np.float32)
  File "D:\condor\execute\dir_8640\Miniconda3\lib\site-packages\flopy\modflow\mfuzf1.py", line 1018, in load_util2d
    arrays[name] = Util2d.load(
  File "D:\condor\execute\dir_8640\Miniconda3\lib\site-packages\flopy\utils\util_array.py", line 2868, in load
    cr_dict = Util2d.parse_control_record(
  File "D:\condor\execute\dir_8640\Miniconda3\lib\site-packages\flopy\utils\util_array.py", line 3013, in parse_control_record
    if str(raw[0].lower()) in str(free_fmt):
IndexError: list index out of range
Traceback (most recent call last):
  File "D:\condor\execute\dir_8640\model\slave_dir\ss_forward_model_20210813.py", line 166, in <module>
    run(input_file= 'input_param.csv')
  File "D:\condor\execute\dir_8640\model\slave_dir\ss_forward_model_20210813.py", line 80, in run
    Sim.mf = flopy.modflow.Modflow.load(os.path.basename(Sim.name_file), model_ws= os.path.dirname(Sim.name_file),
  File "D:\condor\execute\dir_8640\Miniconda3\lib\site-packages\flopy\modflow\mf.py", line 909, in load
    item.package.load(
  File "D:\condor\execute\dir_8640\Miniconda3\lib\site-packages\flopy\modflow\mfuzf1.py", line 1031, in load
    load_util2d("vks", np.float32)
  File "D:\condor\execute\dir_8640\Miniconda3\lib\site-packages\flopy\modflow\mfuzf1.py", line 1018, in load_util2d
    arrays[name] = Util2d.load(
  File "D:\condor\execute\dir_8640\Miniconda3\lib\site-packages\flopy\utils\util_array.py", line 2868, in load
    cr_dict = Util2d.parse_control_record(
  File "D:\condor\execute\dir_8640\Miniconda3\lib\site-packages\flopy\utils\util_array.py", line 3013, in parse_control_record
    if str(raw[0].lower()) in str(free_fmt):
IndexError: list index out of range
Traceback (most recent call last):
  File "D:\condor\execute\dir_8640\model\slave_dir\ss_forward_model_20210813.py", line 166, in <module>
    run(input_file= 'input_param.csv')
  File "D:\condor\execute\dir_8640\model\slave_dir\ss_forward_model_20210813.py", line 80, in run
    Sim.mf = flopy.modflow.Modflow.load(os.path.basename(Sim.name_file), model_ws= os.path.dirname(Sim.name_file),
  File "D:\condor\execute\dir_8640\Miniconda3\lib\site-packages\flopy\modflow\mf.py", line 909, in load
    item.package.load(
  File "D:\condor\execute\dir_8640\Miniconda3\lib\site-packages\flopy\modflow\mfuzf1.py", line 1031, in load
    load_util2d("vks", np.float32)
  File "D:\condor\execute\dir_8640\Miniconda3\lib\site-packages\flopy\modflow\mfuzf1.py", line 1018, in load_util2d
    arrays[name] = Util2d.load(
  File "D:\condor\execute\dir_8640\Miniconda3\lib\site-packages\flopy\utils\util_array.py", line 2868, in load
    cr_dict = Util2d.parse_control_record(
  File "D:\condor\execute\dir_8640\Miniconda3\lib\site-packages\flopy\utils\util_array.py", line 3013, in parse_control_record
    if str(raw[0].lower()) in str(free_fmt):
IndexError: list index out of range
Traceback (most recent call last):
  File "D:\condor\execute\dir_8640\model\slave_dir\ss_forward_model_20210813.py", line 166, in <module>
    run(input_file= 'input_param.csv')
  File "D:\condor\execute\dir_8640\model\slave_dir\ss_forward_model_20210813.py", line 80, in run
    Sim.mf = flopy.modflow.Modflow.load(os.path.basename(Sim.name_file), model_ws= os.path.dirname(Sim.name_file),
  File "D:\condor\execute\dir_8640\Miniconda3\lib\site-packages\flopy\modflow\mf.py", line 909, in load
    item.package.load(
  File "D:\condor\execute\dir_8640\Miniconda3\lib\site-packages\flopy\modflow\mfuzf1.py", line 1031, in load
    load_util2d("vks", np.float32)
  File "D:\condor\execute\dir_8640\Miniconda3\lib\site-packages\flopy\modflow\mfuzf1.py", line 1018, in load_util2d
    arrays[name] = Util2d.load(
  File "D:\condor\execute\dir_8640\Miniconda3\lib\site-packages\flopy\utils\util_array.py", line 2868, in load
    cr_dict = Util2d.parse_control_record(
  File "D:\condor\execute\dir_8640\Miniconda3\lib\site-packages\flopy\utils\util_array.py", line 3013, in parse_control_record
    if str(raw[0].lower()) in str(free_fmt):
IndexError: list index out of range
Traceback (most recent call last):
  File "D:\condor\execute\dir_8640\model\slave_dir\ss_forward_model_20210813.py", line 166, in <module>
    run(input_file= 'input_param.csv')
  File "D:\condor\execute\dir_8640\model\slave_dir\ss_forward_model_20210813.py", line 80, in run
    Sim.mf = flopy.modflow.Modflow.load(os.path.basename(Sim.name_file), model_ws= os.path.dirname(Sim.name_file),
  File "D:\condor\execute\dir_8640\Miniconda3\lib\site-packages\flopy\modflow\mf.py", line 909, in load
    item.package.load(
  File "D:\condor\execute\dir_8640\Miniconda3\lib\site-packages\flopy\modflow\mfuzf1.py", line 1031, in load
    load_util2d("vks", np.float32)
  File "D:\condor\execute\dir_8640\Miniconda3\lib\site-packages\flopy\modflow\mfuzf1.py", line 1018, in load_util2d
    arrays[name] = Util2d.load(
  File "D:\condor\execute\dir_8640\Miniconda3\lib\site-packages\flopy\utils\util_array.py", line 2868, in load
    cr_dict = Util2d.parse_control_record(
  File "D:\condor\execute\dir_8640\Miniconda3\lib\site-packages\flopy\utils\util_array.py", line 3013, in parse_control_record
    if str(raw[0].lower()) in str(free_fmt):
IndexError: list index out of range
Traceback (most recent call last):
  File "D:\condor\execute\dir_8640\model\slave_dir\ss_forward_model_20210813.py", line 166, in <module>
    run(input_file= 'input_param.csv')
  File "D:\condor\execute\dir_8640\model\slave_dir\ss_forward_model_20210813.py", line 80, in run
    Sim.mf = flopy.modflow.Modflow.load(os.path.basename(Sim.name_file), model_ws= os.path.dirname(Sim.name_file),
  File "D:\condor\execute\dir_8640\Miniconda3\lib\site-packages\flopy\modflow\mf.py", line 909, in load
    item.package.load(
  File "D:\condor\execute\dir_8640\Miniconda3\lib\site-packages\flopy\modflow\mfuzf1.py", line 1031, in load
    load_util2d("vks", np.float32)
  File "D:\condor\execute\dir_8640\Miniconda3\lib\site-packages\flopy\modflow\mfuzf1.py", line 1018, in load_util2d
    arrays[name] = Util2d.load(
  File "D:\condor\execute\dir_8640\Miniconda3\lib\site-packages\flopy\utils\util_array.py", line 2868, in load
    cr_dict = Util2d.parse_control_record(
  File "D:\condor\execute\dir_8640\Miniconda3\lib\site-packages\flopy\utils\util_array.py", line 3013, in parse_control_record
    if str(raw[0].lower()) in str(free_fmt):
IndexError: list index out of range
Traceback (most recent call last):
  File "D:\condor\execute\dir_8640\model\slave_dir\ss_forward_model_20210813.py", line 166, in <module>
    run(input_file= 'input_param.csv')
  File "D:\condor\execute\dir_8640\model\slave_dir\ss_forward_model_20210813.py", line 80, in run
    Sim.mf = flopy.modflow.Modflow.load(os.path.basename(Sim.name_file), model_ws= os.path.dirname(Sim.name_file),
  File "D:\condor\execute\dir_8640\Miniconda3\lib\site-packages\flopy\modflow\mf.py", line 909, in load
    item.package.load(
  File "D:\condor\execute\dir_8640\Miniconda3\lib\site-packages\flopy\modflow\mfuzf1.py", line 1031, in load
    load_util2d("vks", np.float32)
  File "D:\condor\execute\dir_8640\Miniconda3\lib\site-packages\flopy\modflow\mfuzf1.py", line 1018, in load_util2d
    arrays[name] = Util2d.load(
  File "D:\condor\execute\dir_8640\Miniconda3\lib\site-packages\flopy\utils\util_array.py", line 2868, in load
    cr_dict = Util2d.parse_control_record(
  File "D:\condor\execute\dir_8640\Miniconda3\lib\site-packages\flopy\utils\util_array.py", line 3013, in parse_control_record
    if str(raw[0].lower()) in str(free_fmt):
IndexError: list index out of range
Traceback (most recent call last):
  File "D:\condor\execute\dir_8640\model\slave_dir\ss_forward_model_20210813.py", line 166, in <module>
    run(input_file= 'input_param.csv')
  File "D:\condor\execute\dir_8640\model\slave_dir\ss_forward_model_20210813.py", line 80, in run
    Sim.mf = flopy.modflow.Modflow.load(os.path.basename(Sim.name_file), model_ws= os.path.dirname(Sim.name_file),
  File "D:\condor\execute\dir_8640\Miniconda3\lib\site-packages\flopy\modflow\mf.py", line 909, in load
    item.package.load(
  File "D:\condor\execute\dir_8640\Miniconda3\lib\site-packages\flopy\modflow\mfuzf1.py", line 1031, in load
    load_util2d("vks", np.float32)
  File "D:\condor\execute\dir_8640\Miniconda3\lib\site-packages\flopy\modflow\mfuzf1.py", line 1018, in load_util2d
    arrays[name] = Util2d.load(
  File "D:\condor\execute\dir_8640\Miniconda3\lib\site-packages\flopy\utils\util_array.py", line 2868, in load
    cr_dict = Util2d.parse_control_record(
  File "D:\condor\execute\dir_8640\Miniconda3\lib\site-packages\flopy\utils\util_array.py", line 3013, in parse_control_record
    if str(raw[0].lower()) in str(free_fmt):
IndexError: list index out of range
Traceback (most recent call last):
  File "D:\condor\execute\dir_8640\model\slave_dir\ss_forward_model_20210813.py", line 166, in <module>
    run(input_file= 'input_param.csv')
  File "D:\condor\execute\dir_8640\model\slave_dir\ss_forward_model_20210813.py", line 80, in run
    Sim.mf = flopy.modflow.Modflow.load(os.path.basename(Sim.name_file), model_ws= os.path.dirname(Sim.name_file),
  File "D:\condor\execute\dir_8640\Miniconda3\lib\site-packages\flopy\modflow\mf.py", line 909, in load
    item.package.load(
  File "D:\condor\execute\dir_8640\Miniconda3\lib\site-packages\flopy\modflow\mfuzf1.py", line 1031, in load
    load_util2d("vks", np.float32)
  File "D:\condor\execute\dir_8640\Miniconda3\lib\site-packages\flopy\modflow\mfuzf1.py", line 1018, in load_util2d
    arrays[name] = Util2d.load(
  File "D:\condor\execute\dir_8640\Miniconda3\lib\site-packages\flopy\utils\util_array.py", line 2868, in load
    cr_dict = Util2d.parse_control_record(
  File "D:\condor\execute\dir_8640\Miniconda3\lib\site-packages\flopy\utils\util_array.py", line 3013, in parse_control_record
    if str(raw[0].lower()) in str(free_fmt):
IndexError: list index out of range
Traceback (most recent call last):
  File "D:\condor\execute\dir_8640\model\slave_dir\ss_forward_model_20210813.py", line 166, in <module>
    run(input_file= 'input_param.csv')
  File "D:\condor\execute\dir_8640\model\slave_dir\ss_forward_model_20210813.py", line 80, in run
    Sim.mf = flopy.modflow.Modflow.load(os.path.basename(Sim.name_file), model_ws= os.path.dirname(Sim.name_file),
  File "D:\condor\execute\dir_8640\Miniconda3\lib\site-packages\flopy\modflow\mf.py", line 909, in load
    item.package.load(
  File "D:\condor\execute\dir_8640\Miniconda3\lib\site-packages\flopy\modflow\mfuzf1.py", line 1031, in load
    load_util2d("vks", np.float32)
  File "D:\condor\execute\dir_8640\Miniconda3\lib\site-packages\flopy\modflow\mfuzf1.py", line 1018, in load_util2d
    arrays[name] = Util2d.load(
  File "D:\condor\execute\dir_8640\Miniconda3\lib\site-packages\flopy\utils\util_array.py", line 2868, in load
    cr_dict = Util2d.parse_control_record(
  File "D:\condor\execute\dir_8640\Miniconda3\lib\site-packages\flopy\utils\util_array.py", line 3013, in parse_control_record
    if str(raw[0].lower()) in str(free_fmt):
IndexError: list index out of range
Traceback (most recent call last):
  File "D:\condor\execute\dir_8640\model\slave_dir\ss_forward_model_20210813.py", line 166, in <module>
    run(input_file= 'input_param.csv')
  File "D:\condor\execute\dir_8640\model\slave_dir\ss_forward_model_20210813.py", line 80, in run
    Sim.mf = flopy.modflow.Modflow.load(os.path.basename(Sim.name_file), model_ws= os.path.dirname(Sim.name_file),
  File "D:\condor\execute\dir_8640\Miniconda3\lib\site-packages\flopy\modflow\mf.py", line 909, in load
    item.package.load(
  File "D:\condor\execute\dir_8640\Miniconda3\lib\site-packages\flopy\modflow\mfuzf1.py", line 1031, in load
    load_util2d("vks", np.float32)
  File "D:\condor\execute\dir_8640\Miniconda3\lib\site-packages\flopy\modflow\mfuzf1.py", line 1018, in load_util2d
    arrays[name] = Util2d.load(
  File "D:\condor\execute\dir_8640\Miniconda3\lib\site-packages\flopy\utils\util_array.py", line 2868, in load
    cr_dict = Util2d.parse_control_record(
  File "D:\condor\execute\dir_8640\Miniconda3\lib\site-packages\flopy\utils\util_array.py", line 3013, in parse_control_record
    if str(raw[0].lower()) in str(free_fmt):
IndexError: list index out of range
Traceback (most recent call last):
  File "D:\condor\execute\dir_8640\model\slave_dir\ss_forward_model_20210813.py", line 166, in <module>
    run(input_file= 'input_param.csv')
  File "D:\condor\execute\dir_8640\model\slave_dir\ss_forward_model_20210813.py", line 80, in run
    Sim.mf = flopy.modflow.Modflow.load(os.path.basename(Sim.name_file), model_ws= os.path.dirname(Sim.name_file),
  File "D:\condor\execute\dir_8640\Miniconda3\lib\site-packages\flopy\modflow\mf.py", line 909, in load
    item.package.load(
  File "D:\condor\execute\dir_8640\Miniconda3\lib\site-packages\flopy\modflow\mfuzf1.py", line 1031, in load
    load_util2d("vks", np.float32)
  File "D:\condor\execute\dir_8640\Miniconda3\lib\site-packages\flopy\modflow\mfuzf1.py", line 1018, in load_util2d
    arrays[name] = Util2d.load(
  File "D:\condor\execute\dir_8640\Miniconda3\lib\site-packages\flopy\utils\util_array.py", line 2868, in load
    cr_dict = Util2d.parse_control_record(
  File "D:\condor\execute\dir_8640\Miniconda3\lib\site-packages\flopy\utils\util_array.py", line 3013, in parse_control_record
    if str(raw[0].lower()) in str(free_fmt):
IndexError: list index out of range
Traceback (most recent call last):
  File "D:\condor\execute\dir_8640\model\slave_dir\ss_forward_model_20210813.py", line 166, in <module>
    run(input_file= 'input_param.csv')
  File "D:\condor\execute\dir_8640\model\slave_dir\ss_forward_model_20210813.py", line 80, in run
    Sim.mf = flopy.modflow.Modflow.load(os.path.basename(Sim.name_file), model_ws= os.path.dirname(Sim.name_file),
  File "D:\condor\execute\dir_8640\Miniconda3\lib\site-packages\flopy\modflow\mf.py", line 909, in load
    item.package.load(
  File "D:\condor\execute\dir_8640\Miniconda3\lib\site-packages\flopy\modflow\mfuzf1.py", line 1031, in load
    load_util2d("vks", np.float32)
  File "D:\condor\execute\dir_8640\Miniconda3\lib\site-packages\flopy\modflow\mfuzf1.py", line 1018, in load_util2d
    arrays[name] = Util2d.load(
  File "D:\condor\execute\dir_8640\Miniconda3\lib\site-packages\flopy\utils\util_array.py", line 2868, in load
    cr_dict = Util2d.parse_control_record(
  File "D:\condor\execute\dir_8640\Miniconda3\lib\site-packages\flopy\utils\util_array.py", line 3013, in parse_control_record
    if str(raw[0].lower()) in str(free_fmt):
IndexError: list index out of range
Traceback (most recent call last):
  File "D:\condor\execute\dir_8640\model\slave_dir\ss_forward_model_20210813.py", line 166, in <module>
    run(input_file= 'input_param.csv')
  File "D:\condor\execute\dir_8640\model\slave_dir\ss_forward_model_20210813.py", line 80, in run
    Sim.mf = flopy.modflow.Modflow.load(os.path.basename(Sim.name_file), model_ws= os.path.dirname(Sim.name_file),
  File "D:\condor\execute\dir_8640\Miniconda3\lib\site-packages\flopy\modflow\mf.py", line 909, in load
    item.package.load(
  File "D:\condor\execute\dir_8640\Miniconda3\lib\site-packages\flopy\modflow\mfuzf1.py", line 1031, in load
    load_util2d("vks", np.float32)
  File "D:\condor\execute\dir_8640\Miniconda3\lib\site-packages\flopy\modflow\mfuzf1.py", line 1018, in load_util2d
    arrays[name] = Util2d.load(
  File "D:\condor\execute\dir_8640\Miniconda3\lib\site-packages\flopy\utils\util_array.py", line 2868, in load
    cr_dict = Util2d.parse_control_record(
  File "D:\condor\execute\dir_8640\Miniconda3\lib\site-packages\flopy\utils\util_array.py", line 3013, in parse_control_record
    if str(raw[0].lower()) in str(free_fmt):
IndexError: list index out of range
Traceback (most recent call last):
  File "D:\condor\execute\dir_8640\model\slave_dir\ss_forward_model_20210813.py", line 166, in <module>
    run(input_file= 'input_param.csv')
  File "D:\condor\execute\dir_8640\model\slave_dir\ss_forward_model_20210813.py", line 80, in run
    Sim.mf = flopy.modflow.Modflow.load(os.path.basename(Sim.name_file), model_ws= os.path.dirname(Sim.name_file),
  File "D:\condor\execute\dir_8640\Miniconda3\lib\site-packages\flopy\modflow\mf.py", line 909, in load
    item.package.load(
  File "D:\condor\execute\dir_8640\Miniconda3\lib\site-packages\flopy\modflow\mfuzf1.py", line 1031, in load
    load_util2d("vks", np.float32)
  File "D:\condor\execute\dir_8640\Miniconda3\lib\site-packages\flopy\modflow\mfuzf1.py", line 1018, in load_util2d
    arrays[name] = Util2d.load(
  File "D:\condor\execute\dir_8640\Miniconda3\lib\site-packages\flopy\utils\util_array.py", line 2868, in load
    cr_dict = Util2d.parse_control_record(
  File "D:\condor\execute\dir_8640\Miniconda3\lib\site-packages\flopy\utils\util_array.py", line 3013, in parse_control_record
    if str(raw[0].lower()) in str(free_fmt):
IndexError: list index out of range
Traceback (most recent call last):
  File "D:\condor\execute\dir_8640\model\slave_dir\ss_forward_model_20210813.py", line 166, in <module>
    run(input_file= 'input_param.csv')
  File "D:\condor\execute\dir_8640\model\slave_dir\ss_forward_model_20210813.py", line 80, in run
    Sim.mf = flopy.modflow.Modflow.load(os.path.basename(Sim.name_file), model_ws= os.path.dirname(Sim.name_file),
  File "D:\condor\execute\dir_8640\Miniconda3\lib\site-packages\flopy\modflow\mf.py", line 909, in load
    item.package.load(
  File "D:\condor\execute\dir_8640\Miniconda3\lib\site-packages\flopy\modflow\mfuzf1.py", line 1031, in load
    load_util2d("vks", np.float32)
  File "D:\condor\execute\dir_8640\Miniconda3\lib\site-packages\flopy\modflow\mfuzf1.py", line 1018, in load_util2d
    arrays[name] = Util2d.load(
  File "D:\condor\execute\dir_8640\Miniconda3\lib\site-packages\flopy\utils\util_array.py", line 2868, in load
    cr_dict = Util2d.parse_control_record(
  File "D:\condor\execute\dir_8640\Miniconda3\lib\site-packages\flopy\utils\util_array.py", line 3013, in parse_control_record
    if str(raw[0].lower()) in str(free_fmt):
IndexError: list index out of range
Traceback (most recent call last):
  File "D:\condor\execute\dir_8640\model\slave_dir\ss_forward_model_20210813.py", line 166, in <module>
    run(input_file= 'input_param.csv')
  File "D:\condor\execute\dir_8640\model\slave_dir\ss_forward_model_20210813.py", line 80, in run
    Sim.mf = flopy.modflow.Modflow.load(os.path.basename(Sim.name_file), model_ws= os.path.dirname(Sim.name_file),
  File "D:\condor\execute\dir_8640\Miniconda3\lib\site-packages\flopy\modflow\mf.py", line 909, in load
    item.package.load(
  File "D:\condor\execute\dir_8640\Miniconda3\lib\site-packages\flopy\modflow\mfuzf1.py", line 1031, in load
    load_util2d("vks", np.float32)
  File "D:\condor\execute\dir_8640\Miniconda3\lib\site-packages\flopy\modflow\mfuzf1.py", line 1018, in load_util2d
    arrays[name] = Util2d.load(
  File "D:\condor\execute\dir_8640\Miniconda3\lib\site-packages\flopy\utils\util_array.py", line 2868, in load
    cr_dict = Util2d.parse_control_record(
  File "D:\condor\execute\dir_8640\Miniconda3\lib\site-packages\flopy\utils\util_array.py", line 3013, in parse_control_record
    if str(raw[0].lower()) in str(free_fmt):
IndexError: list index out of range
Traceback (most recent call last):
  File "D:\condor\execute\dir_8640\model\slave_dir\ss_forward_model_20210813.py", line 166, in <module>
    run(input_file= 'input_param.csv')
  File "D:\condor\execute\dir_8640\model\slave_dir\ss_forward_model_20210813.py", line 80, in run
    Sim.mf = flopy.modflow.Modflow.load(os.path.basename(Sim.name_file), model_ws= os.path.dirname(Sim.name_file),
  File "D:\condor\execute\dir_8640\Miniconda3\lib\site-packages\flopy\modflow\mf.py", line 909, in load
    item.package.load(
  File "D:\condor\execute\dir_8640\Miniconda3\lib\site-packages\flopy\modflow\mfuzf1.py", line 1031, in load
    load_util2d("vks", np.float32)
  File "D:\condor\execute\dir_8640\Miniconda3\lib\site-packages\flopy\modflow\mfuzf1.py", line 1018, in load_util2d
    arrays[name] = Util2d.load(
  File "D:\condor\execute\dir_8640\Miniconda3\lib\site-packages\flopy\utils\util_array.py", line 2868, in load
    cr_dict = Util2d.parse_control_record(
  File "D:\condor\execute\dir_8640\Miniconda3\lib\site-packages\flopy\utils\util_array.py", line 3013, in parse_control_record
    if str(raw[0].lower()) in str(free_fmt):
IndexError: list index out of range
Traceback (most recent call last):
  File "D:\condor\execute\dir_8640\model\slave_dir\ss_forward_model_20210813.py", line 166, in <module>
    run(input_file= 'input_param.csv')
  File "D:\condor\execute\dir_8640\model\slave_dir\ss_forward_model_20210813.py", line 80, in run
    Sim.mf = flopy.modflow.Modflow.load(os.path.basename(Sim.name_file), model_ws= os.path.dirname(Sim.name_file),
  File "D:\condor\execute\dir_8640\Miniconda3\lib\site-packages\flopy\modflow\mf.py", line 909, in load
    item.package.load(
  File "D:\condor\execute\dir_8640\Miniconda3\lib\site-packages\flopy\modflow\mfuzf1.py", line 1031, in load
    load_util2d("vks", np.float32)
  File "D:\condor\execute\dir_8640\Miniconda3\lib\site-packages\flopy\modflow\mfuzf1.py", line 1018, in load_util2d
    arrays[name] = Util2d.load(
  File "D:\condor\execute\dir_8640\Miniconda3\lib\site-packages\flopy\utils\util_array.py", line 2868, in load
    cr_dict = Util2d.parse_control_record(
  File "D:\condor\execute\dir_8640\Miniconda3\lib\site-packages\flopy\utils\util_array.py", line 3013, in parse_control_record
    if str(raw[0].lower()) in str(free_fmt):
IndexError: list index out of range
Traceback (most recent call last):
  File "D:\condor\execute\dir_8640\model\slave_dir\ss_forward_model_20210813.py", line 166, in <module>
    run(input_file= 'input_param.csv')
  File "D:\condor\execute\dir_8640\model\slave_dir\ss_forward_model_20210813.py", line 80, in run
    Sim.mf = flopy.modflow.Modflow.load(os.path.basename(Sim.name_file), model_ws= os.path.dirname(Sim.name_file),
  File "D:\condor\execute\dir_8640\Miniconda3\lib\site-packages\flopy\modflow\mf.py", line 909, in load
    item.package.load(
  File "D:\condor\execute\dir_8640\Miniconda3\lib\site-packages\flopy\modflow\mfuzf1.py", line 1031, in load
    load_util2d("vks", np.float32)
  File "D:\condor\execute\dir_8640\Miniconda3\lib\site-packages\flopy\modflow\mfuzf1.py", line 1018, in load_util2d
    arrays[name] = Util2d.load(
  File "D:\condor\execute\dir_8640\Miniconda3\lib\site-packages\flopy\utils\util_array.py", line 2868, in load
    cr_dict = Util2d.parse_control_record(
  File "D:\condor\execute\dir_8640\Miniconda3\lib\site-packages\flopy\utils\util_array.py", line 3013, in parse_control_record
    if str(raw[0].lower()) in str(free_fmt):
IndexError: list index out of range
Traceback (most recent call last):
  File "D:\condor\execute\dir_8640\model\slave_dir\ss_forward_model_20210813.py", line 166, in <module>
    run(input_file= 'input_param.csv')
  File "D:\condor\execute\dir_8640\model\slave_dir\ss_forward_model_20210813.py", line 80, in run
    Sim.mf = flopy.modflow.Modflow.load(os.path.basename(Sim.name_file), model_ws= os.path.dirname(Sim.name_file),
  File "D:\condor\execute\dir_8640\Miniconda3\lib\site-packages\flopy\modflow\mf.py", line 909, in load
    item.package.load(
  File "D:\condor\execute\dir_8640\Miniconda3\lib\site-packages\flopy\modflow\mfuzf1.py", line 1031, in load
    load_util2d("vks", np.float32)
  File "D:\condor\execute\dir_8640\Miniconda3\lib\site-packages\flopy\modflow\mfuzf1.py", line 1018, in load_util2d
    arrays[name] = Util2d.load(
  File "D:\condor\execute\dir_8640\Miniconda3\lib\site-packages\flopy\utils\util_array.py", line 2868, in load
    cr_dict = Util2d.parse_control_record(
  File "D:\condor\execute\dir_8640\Miniconda3\lib\site-packages\flopy\utils\util_array.py", line 3013, in parse_control_record
    if str(raw[0].lower()) in str(free_fmt):
IndexError: list index out of range
Traceback (most recent call last):
  File "D:\condor\execute\dir_8640\model\slave_dir\ss_forward_model_20210813.py", line 166, in <module>
    run(input_file= 'input_param.csv')
  File "D:\condor\execute\dir_8640\model\slave_dir\ss_forward_model_20210813.py", line 80, in run
    Sim.mf = flopy.modflow.Modflow.load(os.path.basename(Sim.name_file), model_ws= os.path.dirname(Sim.name_file),
  File "D:\condor\execute\dir_8640\Miniconda3\lib\site-packages\flopy\modflow\mf.py", line 909, in load
    item.package.load(
  File "D:\condor\execute\dir_8640\Miniconda3\lib\site-packages\flopy\modflow\mfuzf1.py", line 1031, in load
    load_util2d("vks", np.float32)
  File "D:\condor\execute\dir_8640\Miniconda3\lib\site-packages\flopy\modflow\mfuzf1.py", line 1018, in load_util2d
    arrays[name] = Util2d.load(
  File "D:\condor\execute\dir_8640\Miniconda3\lib\site-packages\flopy\utils\util_array.py", line 2868, in load
    cr_dict = Util2d.parse_control_record(
  File "D:\condor\execute\dir_8640\Miniconda3\lib\site-packages\flopy\utils\util_array.py", line 3013, in parse_control_record
    if str(raw[0].lower()) in str(free_fmt):
IndexError: list index out of range
Traceback (most recent call last):
  File "D:\condor\execute\dir_8640\model\slave_dir\ss_forward_model_20210813.py", line 166, in <module>
    run(input_file= 'input_param.csv')
  File "D:\condor\execute\dir_8640\model\slave_dir\ss_forward_model_20210813.py", line 80, in run
    Sim.mf = flopy.modflow.Modflow.load(os.path.basename(Sim.name_file), model_ws= os.path.dirname(Sim.name_file),
  File "D:\condor\execute\dir_8640\Miniconda3\lib\site-packages\flopy\modflow\mf.py", line 909, in load
    item.package.load(
  File "D:\condor\execute\dir_8640\Miniconda3\lib\site-packages\flopy\modflow\mfuzf1.py", line 1031, in load
    load_util2d("vks", np.float32)
  File "D:\condor\execute\dir_8640\Miniconda3\lib\site-packages\flopy\modflow\mfuzf1.py", line 1018, in load_util2d
    arrays[name] = Util2d.load(
  File "D:\condor\execute\dir_8640\Miniconda3\lib\site-packages\flopy\utils\util_array.py", line 2868, in load
    cr_dict = Util2d.parse_control_record(
  File "D:\condor\execute\dir_8640\Miniconda3\lib\site-packages\flopy\utils\util_array.py", line 3013, in parse_control_record
    if str(raw[0].lower()) in str(free_fmt):
IndexError: list index out of range
Traceback (most recent call last):
  File "D:\condor\execute\dir_8640\model\slave_dir\ss_forward_model_20210813.py", line 166, in <module>
    run(input_file= 'input_param.csv')
  File "D:\condor\execute\dir_8640\model\slave_dir\ss_forward_model_20210813.py", line 80, in run
    Sim.mf = flopy.modflow.Modflow.load(os.path.basename(Sim.name_file), model_ws= os.path.dirname(Sim.name_file),
  File "D:\condor\execute\dir_8640\Miniconda3\lib\site-packages\flopy\modflow\mf.py", line 909, in load
    item.package.load(
  File "D:\condor\execute\dir_8640\Miniconda3\lib\site-packages\flopy\modflow\mfuzf1.py", line 1031, in load
    load_util2d("vks", np.float32)
  File "D:\condor\execute\dir_8640\Miniconda3\lib\site-packages\flopy\modflow\mfuzf1.py", line 1018, in load_util2d
    arrays[name] = Util2d.load(
  File "D:\condor\execute\dir_8640\Miniconda3\lib\site-packages\flopy\utils\util_array.py", line 2868, in load
    cr_dict = Util2d.parse_control_record(
  File "D:\condor\execute\dir_8640\Miniconda3\lib\site-packages\flopy\utils\util_array.py", line 3013, in parse_control_record
    if str(raw[0].lower()) in str(free_fmt):
IndexError: list index out of range
Traceback (most recent call last):
  File "D:\condor\execute\dir_8640\model\slave_dir\ss_forward_model_20210813.py", line 166, in <module>
    run(input_file= 'input_param.csv')
  File "D:\condor\execute\dir_8640\model\slave_dir\ss_forward_model_20210813.py", line 80, in run
    Sim.mf = flopy.modflow.Modflow.load(os.path.basename(Sim.name_file), model_ws= os.path.dirname(Sim.name_file),
  File "D:\condor\execute\dir_8640\Miniconda3\lib\site-packages\flopy\modflow\mf.py", line 909, in load
    item.package.load(
  File "D:\condor\execute\dir_8640\Miniconda3\lib\site-packages\flopy\modflow\mfuzf1.py", line 1031, in load
    load_util2d("vks", np.float32)
  File "D:\condor\execute\dir_8640\Miniconda3\lib\site-packages\flopy\modflow\mfuzf1.py", line 1018, in load_util2d
    arrays[name] = Util2d.load(
  File "D:\condor\execute\dir_8640\Miniconda3\lib\site-packages\flopy\utils\util_array.py", line 2868, in load
    cr_dict = Util2d.parse_control_record(
  File "D:\condor\execute\dir_8640\Miniconda3\lib\site-packages\flopy\utils\util_array.py", line 3013, in parse_control_record
    if str(raw[0].lower()) in str(free_fmt):
IndexError: list index out of range
Traceback (most recent call last):
  File "D:\condor\execute\dir_8640\model\slave_dir\ss_forward_model_20210813.py", line 166, in <module>
    run(input_file= 'input_param.csv')
  File "D:\condor\execute\dir_8640\model\slave_dir\ss_forward_model_20210813.py", line 80, in run
    Sim.mf = flopy.modflow.Modflow.load(os.path.basename(Sim.name_file), model_ws= os.path.dirname(Sim.name_file),
  File "D:\condor\execute\dir_8640\Miniconda3\lib\site-packages\flopy\modflow\mf.py", line 909, in load
    item.package.load(
  File "D:\condor\execute\dir_8640\Miniconda3\lib\site-packages\flopy\modflow\mfuzf1.py", line 1031, in load
    load_util2d("vks", np.float32)
  File "D:\condor\execute\dir_8640\Miniconda3\lib\site-packages\flopy\modflow\mfuzf1.py", line 1018, in load_util2d
    arrays[name] = Util2d.load(
  File "D:\condor\execute\dir_8640\Miniconda3\lib\site-packages\flopy\utils\util_array.py", line 2868, in load
    cr_dict = Util2d.parse_control_record(
  File "D:\condor\execute\dir_8640\Miniconda3\lib\site-packages\flopy\utils\util_array.py", line 3013, in parse_control_record
    if str(raw[0].lower()) in str(free_fmt):
IndexError: list index out of range
Traceback (most recent call last):
  File "D:\condor\execute\dir_8640\model\slave_dir\ss_forward_model_20210813.py", line 166, in <module>
    run(input_file= 'input_param.csv')
  File "D:\condor\execute\dir_8640\model\slave_dir\ss_forward_model_20210813.py", line 80, in run
    Sim.mf = flopy.modflow.Modflow.load(os.path.basename(Sim.name_file), model_ws= os.path.dirname(Sim.name_file),
  File "D:\condor\execute\dir_8640\Miniconda3\lib\site-packages\flopy\modflow\mf.py", line 909, in load
    item.package.load(
  File "D:\condor\execute\dir_8640\Miniconda3\lib\site-packages\flopy\modflow\mfuzf1.py", line 1031, in load
    load_util2d("vks", np.float32)
  File "D:\condor\execute\dir_8640\Miniconda3\lib\site-packages\flopy\modflow\mfuzf1.py", line 1018, in load_util2d
    arrays[name] = Util2d.load(
  File "D:\condor\execute\dir_8640\Miniconda3\lib\site-packages\flopy\utils\util_array.py", line 2868, in load
    cr_dict = Util2d.parse_control_record(
  File "D:\condor\execute\dir_8640\Miniconda3\lib\site-packages\flopy\utils\util_array.py", line 3013, in parse_control_record
    if str(raw[0].lower()) in str(free_fmt):
IndexError: list index out of range
Traceback (most recent call last):
  File "D:\condor\execute\dir_8640\model\slave_dir\ss_forward_model_20210813.py", line 166, in <module>
    run(input_file= 'input_param.csv')
  File "D:\condor\execute\dir_8640\model\slave_dir\ss_forward_model_20210813.py", line 80, in run
    Sim.mf = flopy.modflow.Modflow.load(os.path.basename(Sim.name_file), model_ws= os.path.dirname(Sim.name_file),
  File "D:\condor\execute\dir_8640\Miniconda3\lib\site-packages\flopy\modflow\mf.py", line 909, in load
    item.package.load(
  File "D:\condor\execute\dir_8640\Miniconda3\lib\site-packages\flopy\modflow\mfuzf1.py", line 1031, in load
    load_util2d("vks", np.float32)
  File "D:\condor\execute\dir_8640\Miniconda3\lib\site-packages\flopy\modflow\mfuzf1.py", line 1018, in load_util2d
    arrays[name] = Util2d.load(
  File "D:\condor\execute\dir_8640\Miniconda3\lib\site-packages\flopy\utils\util_array.py", line 2868, in load
    cr_dict = Util2d.parse_control_record(
  File "D:\condor\execute\dir_8640\Miniconda3\lib\site-packages\flopy\utils\util_array.py", line 3013, in parse_control_record
    if str(raw[0].lower()) in str(free_fmt):
IndexError: list index out of range
Traceback (most recent call last):
  File "D:\condor\execute\dir_8640\model\slave_dir\ss_forward_model_20210813.py", line 166, in <module>
    run(input_file= 'input_param.csv')
  File "D:\condor\execute\dir_8640\model\slave_dir\ss_forward_model_20210813.py", line 80, in run
    Sim.mf = flopy.modflow.Modflow.load(os.path.basename(Sim.name_file), model_ws= os.path.dirname(Sim.name_file),
  File "D:\condor\execute\dir_8640\Miniconda3\lib\site-packages\flopy\modflow\mf.py", line 909, in load
    item.package.load(
  File "D:\condor\execute\dir_8640\Miniconda3\lib\site-packages\flopy\modflow\mfuzf1.py", line 1031, in load
    load_util2d("vks", np.float32)
  File "D:\condor\execute\dir_8640\Miniconda3\lib\site-packages\flopy\modflow\mfuzf1.py", line 1018, in load_util2d
    arrays[name] = Util2d.load(
  File "D:\condor\execute\dir_8640\Miniconda3\lib\site-packages\flopy\utils\util_array.py", line 2868, in load
    cr_dict = Util2d.parse_control_record(
  File "D:\condor\execute\dir_8640\Miniconda3\lib\site-packages\flopy\utils\util_array.py", line 3013, in parse_control_record
    if str(raw[0].lower()) in str(free_fmt):
IndexError: list index out of range
Traceback (most recent call last):
  File "D:\condor\execute\dir_8640\model\slave_dir\ss_forward_model_20210813.py", line 166, in <module>
    run(input_file= 'input_param.csv')
  File "D:\condor\execute\dir_8640\model\slave_dir\ss_forward_model_20210813.py", line 80, in run
    Sim.mf = flopy.modflow.Modflow.load(os.path.basename(Sim.name_file), model_ws= os.path.dirname(Sim.name_file),
  File "D:\condor\execute\dir_8640\Miniconda3\lib\site-packages\flopy\modflow\mf.py", line 909, in load
    item.package.load(
  File "D:\condor\execute\dir_8640\Miniconda3\lib\site-packages\flopy\modflow\mfuzf1.py", line 1031, in load
    load_util2d("vks", np.float32)
  File "D:\condor\execute\dir_8640\Miniconda3\lib\site-packages\flopy\modflow\mfuzf1.py", line 1018, in load_util2d
    arrays[name] = Util2d.load(
  File "D:\condor\execute\dir_8640\Miniconda3\lib\site-packages\flopy\utils\util_array.py", line 2868, in load
    cr_dict = Util2d.parse_control_record(
  File "D:\condor\execute\dir_8640\Miniconda3\lib\site-packages\flopy\utils\util_array.py", line 3013, in parse_control_record
    if str(raw[0].lower()) in str(free_fmt):
IndexError: list index out of range
Traceback (most recent call last):
  File "D:\condor\execute\dir_8640\model\slave_dir\ss_forward_model_20210813.py", line 166, in <module>
    run(input_file= 'input_param.csv')
  File "D:\condor\execute\dir_8640\model\slave_dir\ss_forward_model_20210813.py", line 80, in run
    Sim.mf = flopy.modflow.Modflow.load(os.path.basename(Sim.name_file), model_ws= os.path.dirname(Sim.name_file),
  File "D:\condor\execute\dir_8640\Miniconda3\lib\site-packages\flopy\modflow\mf.py", line 909, in load
    item.package.load(
  File "D:\condor\execute\dir_8640\Miniconda3\lib\site-packages\flopy\modflow\mfuzf1.py", line 1031, in load
    load_util2d("vks", np.float32)
  File "D:\condor\execute\dir_8640\Miniconda3\lib\site-packages\flopy\modflow\mfuzf1.py", line 1018, in load_util2d
    arrays[name] = Util2d.load(
  File "D:\condor\execute\dir_8640\Miniconda3\lib\site-packages\flopy\utils\util_array.py", line 2868, in load
    cr_dict = Util2d.parse_control_record(
  File "D:\condor\execute\dir_8640\Miniconda3\lib\site-packages\flopy\utils\util_array.py", line 3013, in parse_control_record
    if str(raw[0].lower()) in str(free_fmt):
IndexError: list index out of range
Traceback (most recent call last):
  File "D:\condor\execute\dir_8640\model\slave_dir\ss_forward_model_20210813.py", line 166, in <module>
    run(input_file= 'input_param.csv')
  File "D:\condor\execute\dir_8640\model\slave_dir\ss_forward_model_20210813.py", line 80, in run
    Sim.mf = flopy.modflow.Modflow.load(os.path.basename(Sim.name_file), model_ws= os.path.dirname(Sim.name_file),
  File "D:\condor\execute\dir_8640\Miniconda3\lib\site-packages\flopy\modflow\mf.py", line 909, in load
    item.package.load(
  File "D:\condor\execute\dir_8640\Miniconda3\lib\site-packages\flopy\modflow\mfuzf1.py", line 1031, in load
    load_util2d("vks", np.float32)
  File "D:\condor\execute\dir_8640\Miniconda3\lib\site-packages\flopy\modflow\mfuzf1.py", line 1018, in load_util2d
    arrays[name] = Util2d.load(
  File "D:\condor\execute\dir_8640\Miniconda3\lib\site-packages\flopy\utils\util_array.py", line 2868, in load
    cr_dict = Util2d.parse_control_record(
  File "D:\condor\execute\dir_8640\Miniconda3\lib\site-packages\flopy\utils\util_array.py", line 3013, in parse_control_record
    if str(raw[0].lower()) in str(free_fmt):
IndexError: list index out of range
Traceback (most recent call last):
  File "D:\condor\execute\dir_8640\model\slave_dir\ss_forward_model_20210813.py", line 166, in <module>
    run(input_file= 'input_param.csv')
  File "D:\condor\execute\dir_8640\model\slave_dir\ss_forward_model_20210813.py", line 80, in run
    Sim.mf = flopy.modflow.Modflow.load(os.path.basename(Sim.name_file), model_ws= os.path.dirname(Sim.name_file),
  File "D:\condor\execute\dir_8640\Miniconda3\lib\site-packages\flopy\modflow\mf.py", line 909, in load
    item.package.load(
  File "D:\condor\execute\dir_8640\Miniconda3\lib\site-packages\flopy\modflow\mfuzf1.py", line 1031, in load
    load_util2d("vks", np.float32)
  File "D:\condor\execute\dir_8640\Miniconda3\lib\site-packages\flopy\modflow\mfuzf1.py", line 1018, in load_util2d
    arrays[name] = Util2d.load(
  File "D:\condor\execute\dir_8640\Miniconda3\lib\site-packages\flopy\utils\util_array.py", line 2868, in load
    cr_dict = Util2d.parse_control_record(
  File "D:\condor\execute\dir_8640\Miniconda3\lib\site-packages\flopy\utils\util_array.py", line 3013, in parse_control_record
    if str(raw[0].lower()) in str(free_fmt):
IndexError: list index out of range
Traceback (most recent call last):
  File "D:\condor\execute\dir_8640\model\slave_dir\ss_forward_model_20210813.py", line 166, in <module>
    run(input_file= 'input_param.csv')
  File "D:\condor\execute\dir_8640\model\slave_dir\ss_forward_model_20210813.py", line 80, in run
    Sim.mf = flopy.modflow.Modflow.load(os.path.basename(Sim.name_file), model_ws= os.path.dirname(Sim.name_file),
  File "D:\condor\execute\dir_8640\Miniconda3\lib\site-packages\flopy\modflow\mf.py", line 909, in load
    item.package.load(
  File "D:\condor\execute\dir_8640\Miniconda3\lib\site-packages\flopy\modflow\mfuzf1.py", line 1031, in load
    load_util2d("vks", np.float32)
  File "D:\condor\execute\dir_8640\Miniconda3\lib\site-packages\flopy\modflow\mfuzf1.py", line 1018, in load_util2d
    arrays[name] = Util2d.load(
  File "D:\condor\execute\dir_8640\Miniconda3\lib\site-packages\flopy\utils\util_array.py", line 2868, in load
    cr_dict = Util2d.parse_control_record(
  File "D:\condor\execute\dir_8640\Miniconda3\lib\site-packages\flopy\utils\util_array.py", line 3013, in parse_control_record
    if str(raw[0].lower()) in str(free_fmt):
IndexError: list index out of range
Traceback (most recent call last):
  File "D:\condor\execute\dir_8640\model\slave_dir\ss_forward_model_20210813.py", line 166, in <module>
    run(input_file= 'input_param.csv')
  File "D:\condor\execute\dir_8640\model\slave_dir\ss_forward_model_20210813.py", line 80, in run
    Sim.mf = flopy.modflow.Modflow.load(os.path.basename(Sim.name_file), model_ws= os.path.dirname(Sim.name_file),
  File "D:\condor\execute\dir_8640\Miniconda3\lib\site-packages\flopy\modflow\mf.py", line 909, in load
    item.package.load(
  File "D:\condor\execute\dir_8640\Miniconda3\lib\site-packages\flopy\modflow\mfuzf1.py", line 1031, in load
    load_util2d("vks", np.float32)
  File "D:\condor\execute\dir_8640\Miniconda3\lib\site-packages\flopy\modflow\mfuzf1.py", line 1018, in load_util2d
    arrays[name] = Util2d.load(
  File "D:\condor\execute\dir_8640\Miniconda3\lib\site-packages\flopy\utils\util_array.py", line 2868, in load
    cr_dict = Util2d.parse_control_record(
  File "D:\condor\execute\dir_8640\Miniconda3\lib\site-packages\flopy\utils\util_array.py", line 3013, in parse_control_record
    if str(raw[0].lower()) in str(free_fmt):
IndexError: list index out of range
Traceback (most recent call last):
  File "D:\condor\execute\dir_8640\model\slave_dir\ss_forward_model_20210813.py", line 166, in <module>
    run(input_file= 'input_param.csv')
  File "D:\condor\execute\dir_8640\model\slave_dir\ss_forward_model_20210813.py", line 80, in run
    Sim.mf = flopy.modflow.Modflow.load(os.path.basename(Sim.name_file), model_ws= os.path.dirname(Sim.name_file),
  File "D:\condor\execute\dir_8640\Miniconda3\lib\site-packages\flopy\modflow\mf.py", line 909, in load
    item.package.load(
  File "D:\condor\execute\dir_8640\Miniconda3\lib\site-packages\flopy\modflow\mfuzf1.py", line 1031, in load
    load_util2d("vks", np.float32)
  File "D:\condor\execute\dir_8640\Miniconda3\lib\site-packages\flopy\modflow\mfuzf1.py", line 1018, in load_util2d
    arrays[name] = Util2d.load(
  File "D:\condor\execute\dir_8640\Miniconda3\lib\site-packages\flopy\utils\util_array.py", line 2868, in load
    cr_dict = Util2d.parse_control_record(
  File "D:\condor\execute\dir_8640\Miniconda3\lib\site-packages\flopy\utils\util_array.py", line 3013, in parse_control_record
    if str(raw[0].lower()) in str(free_fmt):
IndexError: list index out of range
Traceback (most recent call last):
  File "D:\condor\execute\dir_8640\model\slave_dir\ss_forward_model_20210813.py", line 166, in <module>
    run(input_file= 'input_param.csv')
  File "D:\condor\execute\dir_8640\model\slave_dir\ss_forward_model_20210813.py", line 80, in run
    Sim.mf = flopy.modflow.Modflow.load(os.path.basename(Sim.name_file), model_ws= os.path.dirname(Sim.name_file),
  File "D:\condor\execute\dir_8640\Miniconda3\lib\site-packages\flopy\modflow\mf.py", line 909, in load
    item.package.load(
  File "D:\condor\execute\dir_8640\Miniconda3\lib\site-packages\flopy\modflow\mfuzf1.py", line 1031, in load
    load_util2d("vks", np.float32)
  File "D:\condor\execute\dir_8640\Miniconda3\lib\site-packages\flopy\modflow\mfuzf1.py", line 1018, in load_util2d
    arrays[name] = Util2d.load(
  File "D:\condor\execute\dir_8640\Miniconda3\lib\site-packages\flopy\utils\util_array.py", line 2868, in load
    cr_dict = Util2d.parse_control_record(
  File "D:\condor\execute\dir_8640\Miniconda3\lib\site-packages\flopy\utils\util_array.py", line 3013, in parse_control_record
    if str(raw[0].lower()) in str(free_fmt):
IndexError: list index out of range
Traceback (most recent call last):
  File "D:\condor\execute\dir_8640\model\slave_dir\ss_forward_model_20210813.py", line 166, in <module>
    run(input_file= 'input_param.csv')
  File "D:\condor\execute\dir_8640\model\slave_dir\ss_forward_model_20210813.py", line 80, in run
    Sim.mf = flopy.modflow.Modflow.load(os.path.basename(Sim.name_file), model_ws= os.path.dirname(Sim.name_file),
  File "D:\condor\execute\dir_8640\Miniconda3\lib\site-packages\flopy\modflow\mf.py", line 909, in load
    item.package.load(
  File "D:\condor\execute\dir_8640\Miniconda3\lib\site-packages\flopy\modflow\mfuzf1.py", line 1031, in load
    load_util2d("vks", np.float32)
  File "D:\condor\execute\dir_8640\Miniconda3\lib\site-packages\flopy\modflow\mfuzf1.py", line 1018, in load_util2d
    arrays[name] = Util2d.load(
  File "D:\condor\execute\dir_8640\Miniconda3\lib\site-packages\flopy\utils\util_array.py", line 2868, in load
    cr_dict = Util2d.parse_control_record(
  File "D:\condor\execute\dir_8640\Miniconda3\lib\site-packages\flopy\utils\util_array.py", line 3013, in parse_control_record
    if str(raw[0].lower()) in str(free_fmt):
IndexError: list index out of range
Traceback (most recent call last):
  File "D:\condor\execute\dir_8640\model\slave_dir\ss_forward_model_20210813.py", line 166, in <module>
    run(input_file= 'input_param.csv')
  File "D:\condor\execute\dir_8640\model\slave_dir\ss_forward_model_20210813.py", line 80, in run
    Sim.mf = flopy.modflow.Modflow.load(os.path.basename(Sim.name_file), model_ws= os.path.dirname(Sim.name_file),
  File "D:\condor\execute\dir_8640\Miniconda3\lib\site-packages\flopy\modflow\mf.py", line 909, in load
    item.package.load(
  File "D:\condor\execute\dir_8640\Miniconda3\lib\site-packages\flopy\modflow\mfuzf1.py", line 1031, in load
    load_util2d("vks", np.float32)
  File "D:\condor\execute\dir_8640\Miniconda3\lib\site-packages\flopy\modflow\mfuzf1.py", line 1018, in load_util2d
    arrays[name] = Util2d.load(
  File "D:\condor\execute\dir_8640\Miniconda3\lib\site-packages\flopy\utils\util_array.py", line 2868, in load
    cr_dict = Util2d.parse_control_record(
  File "D:\condor\execute\dir_8640\Miniconda3\lib\site-packages\flopy\utils\util_array.py", line 3013, in parse_control_record
    if str(raw[0].lower()) in str(free_fmt):
IndexError: list index out of range
Traceback (most recent call last):
  File "D:\condor\execute\dir_8640\model\slave_dir\ss_forward_model_20210813.py", line 166, in <module>
    run(input_file= 'input_param.csv')
  File "D:\condor\execute\dir_8640\model\slave_dir\ss_forward_model_20210813.py", line 80, in run
    Sim.mf = flopy.modflow.Modflow.load(os.path.basename(Sim.name_file), model_ws= os.path.dirname(Sim.name_file),
  File "D:\condor\execute\dir_8640\Miniconda3\lib\site-packages\flopy\modflow\mf.py", line 909, in load
    item.package.load(
  File "D:\condor\execute\dir_8640\Miniconda3\lib\site-packages\flopy\modflow\mfuzf1.py", line 1031, in load
    load_util2d("vks", np.float32)
  File "D:\condor\execute\dir_8640\Miniconda3\lib\site-packages\flopy\modflow\mfuzf1.py", line 1018, in load_util2d
    arrays[name] = Util2d.load(
  File "D:\condor\execute\dir_8640\Miniconda3\lib\site-packages\flopy\utils\util_array.py", line 2868, in load
    cr_dict = Util2d.parse_control_record(
  File "D:\condor\execute\dir_8640\Miniconda3\lib\site-packages\flopy\utils\util_array.py", line 3013, in parse_control_record
    if str(raw[0].lower()) in str(free_fmt):
IndexError: list index out of range
Traceback (most recent call last):
  File "D:\condor\execute\dir_8640\model\slave_dir\ss_forward_model_20210813.py", line 166, in <module>
    run(input_file= 'input_param.csv')
[...]
IndexError: list index out of range
Traceback (most recent call last):
  File "D:\condor\execute\dir_8640\model\slave_dir\ss_forward_model_20210813.py", line 166, in <module>
    run(input_file= 'input_param.csv')
  File "D:\condor\execute\dir_8640\model\slave_dir\ss_forward_model_20210813.py", line 80, in run
    Sim.mf = flopy.modflow.Modflow.load(os.path.basename(Sim.name_file), model_ws= os.path.dirname(Sim.name_file),
  File "D:\condor\execute\dir_8640\Miniconda3\lib\site-packages\flopy\modflow\mf.py", line 909, in load
    item.package.load(
  File "D:\condor\execute\dir_8640\Miniconda3\lib\site-packages\flopy\modflow\mfuzf1.py", line 1031, in load
    load_util2d("vks", np.float32)
  File "D:\condor\execute\dir_8640\Miniconda3\lib\site-packages\flopy\modflow\mfuzf1.py", line 1018, in load_util2d
    arrays[name] = Util2d.load(
  File "D:\condor\execute\dir_8640\Miniconda3\lib\site-packages\flopy\utils\util_array.py", line 2868, in load
    cr_dict = Util2d.parse_control_record(
  File "D:\condor\execute\dir_8640\Miniconda3\lib\site-packages\flopy\utils\util_array.py", line 3013, in parse_control_record
    if str(raw[0].lower()) in str(free_fmt):
IndexError: list index out of range
Traceback (most recent call last):
  File "D:\condor\execute\dir_8640\model\slave_dir\ss_forward_model_20210813.py", line 166, in <module>
    run(input_file= 'input_param.csv')
  File "D:\condor\execute\dir_8640\model\slave_dir\ss_forward_model_20210813.py", line 80, in run
    Sim.mf = flopy.modflow.Modflow.load(os.path.basename(Sim.name_file), model_ws= os.path.dirname(Sim.name_file),
  File "D:\condor\execute\dir_8640\Miniconda3\lib\site-packages\flopy\modflow\mf.py", line 909, in load
    item.package.load(
  File "D:\condor\execute\dir_8640\Miniconda3\lib\site-packages\flopy\modflow\mfuzf1.py", line 1031, in load
    load_util2d("vks", np.float32)
  File "D:\condor\execute\dir_8640\Miniconda3\lib\site-packages\flopy\modflow\mfuzf1.py", line 1018, in load_util2d
    arrays[name] = Util2d.load(
  File "D:\condor\execute\dir_8640\Miniconda3\lib\site-packages\flopy\utils\util_array.py", line 2868, in load
    cr_dict = Util2d.parse_control_record(
  File "D:\condor\execute\dir_8640\Miniconda3\lib\site-packages\flopy\utils\util_array.py", line 3013, in parse_control_record
    if str(raw[0].lower()) in str(free_fmt):
IndexError: list index out of range
Traceback (most recent call last):
  File "D:\condor\execute\dir_8640\model\slave_dir\ss_forward_model_20210813.py", line 166, in <module>
    run(input_file= 'input_param.csv')
  File "D:\condor\execute\dir_8640\model\slave_dir\ss_forward_model_20210813.py", line 80, in run
    Sim.mf = flopy.modflow.Modflow.load(os.path.basename(Sim.name_file), model_ws= os.path.dirname(Sim.name_file),
  File "D:\condor\execute\dir_8640\Miniconda3\lib\site-packages\flopy\modflow\mf.py", line 909, in load
    item.package.load(
  File "D:\condor\execute\dir_8640\Miniconda3\lib\site-packages\flopy\modflow\mfuzf1.py", line 1031, in load
    load_util2d("vks", np.float32)
  File "D:\condor\execute\dir_8640\Miniconda3\lib\site-packages\flopy\modflow\mfuzf1.py", line 1018, in load_util2d
    arrays[name] = Util2d.load(
  File "D:\condor\execute\dir_8640\Miniconda3\lib\site-packages\flopy\utils\util_array.py", line 2868, in load
    cr_dict = Util2d.parse_control_record(
  File "D:\condor\execute\dir_8640\Miniconda3\lib\site-packages\flopy\utils\util_array.py", line 3013, in parse_control_record
    if str(raw[0].lower()) in str(free_fmt):
IndexError: list index out of range
Traceback (most recent call last):
  File "D:\condor\execute\dir_8640\model\slave_dir\ss_forward_model_20210813.py", line 166, in <module>
    run(input_file= 'input_param.csv')
  File "D:\condor\execute\dir_8640\model\slave_dir\ss_forward_model_20210813.py", line 80, in run
    Sim.mf = flopy.modflow.Modflow.load(os.path.basename(Sim.name_file), model_ws= os.path.dirname(Sim.name_file),
  File "D:\condor\execute\dir_8640\Miniconda3\lib\site-packages\flopy\modflow\mf.py", line 909, in load
    item.package.load(
  File "D:\condor\execute\dir_8640\Miniconda3\lib\site-packages\flopy\modflow\mfuzf1.py", line 1031, in load
    load_util2d("vks", np.float32)
  File "D:\condor\execute\dir_8640\Miniconda3\lib\site-packages\flopy\modflow\mfuzf1.py", line 1018, in load_util2d
    arrays[name] = Util2d.load(
  File "D:\condor\execute\dir_8640\Miniconda3\lib\site-packages\flopy\utils\util_array.py", line 2868, in load
    cr_dict = Util2d.parse_control_record(
  File "D:\condor\execute\dir_8640\Miniconda3\lib\site-packages\flopy\utils\util_array.py", line 3013, in parse_control_record
    if str(raw[0].lower()) in str(free_fmt):
IndexError: list index out of range
Traceback (most recent call last):
  File "D:\condor\execute\dir_8640\model\slave_dir\ss_forward_model_20210813.py", line 166, in <module>
    run(input_file= 'input_param.csv')
  File "D:\condor\execute\dir_8640\model\slave_dir\ss_forward_model_20210813.py", line 80, in run
    Sim.mf = flopy.modflow.Modflow.load(os.path.basename(Sim.name_file), model_ws= os.path.dirname(Sim.name_file),
  File "D:\condor\execute\dir_8640\Miniconda3\lib\site-packages\flopy\modflow\mf.py", line 909, in load
    item.package.load(
  File "D:\condor\execute\dir_8640\Miniconda3\lib\site-packages\flopy\modflow\mfuzf1.py", line 1031, in load
    load_util2d("vks", np.float32)
  File "D:\condor\execute\dir_8640\Miniconda3\lib\site-packages\flopy\modflow\mfuzf1.py", line 1018, in load_util2d
    arrays[name] = Util2d.load(
  File "D:\condor\execute\dir_8640\Miniconda3\lib\site-packages\flopy\utils\util_array.py", line 2868, in load
    cr_dict = Util2d.parse_control_record(
  File "D:\condor\execute\dir_8640\Miniconda3\lib\site-packages\flopy\utils\util_array.py", line 3013, in parse_control_record
    if str(raw[0].lower()) in str(free_fmt):
IndexError: list index out of range
Traceback (most recent call last):
  File "D:\condor\execute\dir_8640\model\slave_dir\ss_forward_model_20210813.py", line 166, in <module>
    run(input_file= 'input_param.csv')
  File "D:\condor\execute\dir_8640\model\slave_dir\ss_forward_model_20210813.py", line 80, in run
    Sim.mf = flopy.modflow.Modflow.load(os.path.basename(Sim.name_file), model_ws= os.path.dirname(Sim.name_file),
  File "D:\condor\execute\dir_8640\Miniconda3\lib\site-packages\flopy\modflow\mf.py", line 909, in load
    item.package.load(
  File "D:\condor\execute\dir_8640\Miniconda3\lib\site-packages\flopy\modflow\mfuzf1.py", line 1031, in load
    load_util2d("vks", np.float32)
  File "D:\condor\execute\dir_8640\Miniconda3\lib\site-packages\flopy\modflow\mfuzf1.py", line 1018, in load_util2d
    arrays[name] = Util2d.load(
  File "D:\condor\execute\dir_8640\Miniconda3\lib\site-packages\flopy\utils\util_array.py", line 2868, in load
    cr_dict = Util2d.parse_control_record(
  File "D:\condor\execute\dir_8640\Miniconda3\lib\site-packages\flopy\utils\util_array.py", line 3013, in parse_control_record
    if str(raw[0].lower()) in str(free_fmt):
IndexError: list index out of range
Traceback (most recent call last):
  File "D:\condor\execute\dir_8640\model\slave_dir\ss_forward_model_20210813.py", line 166, in <module>
    run(input_file= 'input_param.csv')
  File "D:\condor\execute\dir_8640\model\slave_dir\ss_forward_model_20210813.py", line 80, in run
    Sim.mf = flopy.modflow.Modflow.load(os.path.basename(Sim.name_file), model_ws= os.path.dirname(Sim.name_file),
  File "D:\condor\execute\dir_8640\Miniconda3\lib\site-packages\flopy\modflow\mf.py", line 909, in load
    item.package.load(
  File "D:\condor\execute\dir_8640\Miniconda3\lib\site-packages\flopy\modflow\mfuzf1.py", line 1031, in load
    load_util2d("vks", np.float32)
  File "D:\condor\execute\dir_8640\Miniconda3\lib\site-packages\flopy\modflow\mfuzf1.py", line 1018, in load_util2d
    arrays[name] = Util2d.load(
  File "D:\condor\execute\dir_8640\Miniconda3\lib\site-packages\flopy\utils\util_array.py", line 2868, in load
    cr_dict = Util2d.parse_control_record(
  File "D:\condor\execute\dir_8640\Miniconda3\lib\site-packages\flopy\utils\util_array.py", line 3013, in parse_control_record
    if str(raw[0].lower()) in str(free_fmt):
IndexError: list index out of range
Traceback (most recent call last):
  File "D:\condor\execute\dir_8640\model\slave_dir\ss_forward_model_20210813.py", line 166, in <module>
    run(input_file= 'input_param.csv')
  File "D:\condor\execute\dir_8640\model\slave_dir\ss_forward_model_20210813.py", line 80, in run
    Sim.mf = flopy.modflow.Modflow.load(os.path.basename(Sim.name_file), model_ws= os.path.dirname(Sim.name_file),
  File "D:\condor\execute\dir_8640\Miniconda3\lib\site-packages\flopy\modflow\mf.py", line 909, in load
    item.package.load(
  File "D:\condor\execute\dir_8640\Miniconda3\lib\site-packages\flopy\modflow\mfuzf1.py", line 1031, in load
    load_util2d("vks", np.float32)
  File "D:\condor\execute\dir_8640\Miniconda3\lib\site-packages\flopy\modflow\mfuzf1.py", line 1018, in load_util2d
    arrays[name] = Util2d.load(
  File "D:\condor\execute\dir_8640\Miniconda3\lib\site-packages\flopy\utils\util_array.py", line 2868, in load
    cr_dict = Util2d.parse_control_record(
  File "D:\condor\execute\dir_8640\Miniconda3\lib\site-packages\flopy\utils\util_array.py", line 3013, in parse_control_record
    if str(raw[0].lower()) in str(free_fmt):
IndexError: list index out of range
Traceback (most recent call last):
  File "D:\condor\execute\dir_8640\model\slave_dir\ss_forward_model_20210813.py", line 166, in <module>
    run(input_file= 'input_param.csv')
  File "D:\condor\execute\dir_8640\model\slave_dir\ss_forward_model_20210813.py", line 80, in run
    Sim.mf = flopy.modflow.Modflow.load(os.path.basename(Sim.name_file), model_ws= os.path.dirname(Sim.name_file),
  File "D:\condor\execute\dir_8640\Miniconda3\lib\site-packages\flopy\modflow\mf.py", line 909, in load
    item.package.load(
  File "D:\condor\execute\dir_8640\Miniconda3\lib\site-packages\flopy\modflow\mfuzf1.py", line 1031, in load
    load_util2d("vks", np.float32)
  File "D:\condor\execute\dir_8640\Miniconda3\lib\site-packages\flopy\modflow\mfuzf1.py", line 1018, in load_util2d
    arrays[name] = Util2d.load(
  File "D:\condor\execute\dir_8640\Miniconda3\lib\site-packages\flopy\utils\util_array.py", line 2868, in load
    cr_dict = Util2d.parse_control_record(
  File "D:\condor\execute\dir_8640\Miniconda3\lib\site-packages\flopy\utils\util_array.py", line 3013, in parse_control_record
    if str(raw[0].lower()) in str(free_fmt):
IndexError: list index out of range
Traceback (most recent call last):
  File "D:\condor\execute\dir_8640\model\slave_dir\ss_forward_model_20210813.py", line 166, in <module>
    run(input_file= 'input_param.csv')
  File "D:\condor\execute\dir_8640\model\slave_dir\ss_forward_model_20210813.py", line 80, in run
    Sim.mf = flopy.modflow.Modflow.load(os.path.basename(Sim.name_file), model_ws= os.path.dirname(Sim.name_file),
  File "D:\condor\execute\dir_8640\Miniconda3\lib\site-packages\flopy\modflow\mf.py", line 909, in load
    item.package.load(
  File "D:\condor\execute\dir_8640\Miniconda3\lib\site-packages\flopy\modflow\mfuzf1.py", line 1031, in load
    load_util2d("vks", np.float32)
  File "D:\condor\execute\dir_8640\Miniconda3\lib\site-packages\flopy\modflow\mfuzf1.py", line 1018, in load_util2d
    arrays[name] = Util2d.load(
  File "D:\condor\execute\dir_8640\Miniconda3\lib\site-packages\flopy\utils\util_array.py", line 2868, in load
    cr_dict = Util2d.parse_control_record(
  File "D:\condor\execute\dir_8640\Miniconda3\lib\site-packages\flopy\utils\util_array.py", line 3013, in parse_control_record
    if str(raw[0].lower()) in str(free_fmt):
IndexError: list index out of range
Traceback (most recent call last):
  File "D:\condor\execute\dir_8640\model\slave_dir\ss_forward_model_20210813.py", line 166, in <module>
    run(input_file= 'input_param.csv')
  File "D:\condor\execute\dir_8640\model\slave_dir\ss_forward_model_20210813.py", line 80, in run
    Sim.mf = flopy.modflow.Modflow.load(os.path.basename(Sim.name_file), model_ws= os.path.dirname(Sim.name_file),
  File "D:\condor\execute\dir_8640\Miniconda3\lib\site-packages\flopy\modflow\mf.py", line 909, in load
    item.package.load(
  File "D:\condor\execute\dir_8640\Miniconda3\lib\site-packages\flopy\modflow\mfuzf1.py", line 1031, in load
    load_util2d("vks", np.float32)
  File "D:\condor\execute\dir_8640\Miniconda3\lib\site-packages\flopy\modflow\mfuzf1.py", line 1018, in load_util2d
    arrays[name] = Util2d.load(
  File "D:\condor\execute\dir_8640\Miniconda3\lib\site-packages\flopy\utils\util_array.py", line 2868, in load
    cr_dict = Util2d.parse_control_record(
  File "D:\condor\execute\dir_8640\Miniconda3\lib\site-packages\flopy\utils\util_array.py", line 3013, in parse_control_record
    if str(raw[0].lower()) in str(free_fmt):
IndexError: list index out of range
Traceback (most recent call last):
  File "D:\condor\execute\dir_8640\model\slave_dir\ss_forward_model_20210813.py", line 166, in <module>
    run(input_file= 'input_param.csv')
  File "D:\condor\execute\dir_8640\model\slave_dir\ss_forward_model_20210813.py", line 80, in run
    Sim.mf = flopy.modflow.Modflow.load(os.path.basename(Sim.name_file), model_ws= os.path.dirname(Sim.name_file),
  File "D:\condor\execute\dir_8640\Miniconda3\lib\site-packages\flopy\modflow\mf.py", line 909, in load
    item.package.load(
  File "D:\condor\execute\dir_8640\Miniconda3\lib\site-packages\flopy\modflow\mfuzf1.py", line 1031, in load
    load_util2d("vks", np.float32)
  File "D:\condor\execute\dir_8640\Miniconda3\lib\site-packages\flopy\modflow\mfuzf1.py", line 1018, in load_util2d
    arrays[name] = Util2d.load(
  File "D:\condor\execute\dir_8640\Miniconda3\lib\site-packages\flopy\utils\util_array.py", line 2868, in load
    cr_dict = Util2d.parse_control_record(
  File "D:\condor\execute\dir_8640\Miniconda3\lib\site-packages\flopy\utils\util_array.py", line 3013, in parse_control_record
    if str(raw[0].lower()) in str(free_fmt):
IndexError: list index out of range
Traceback (most recent call last):
  File "D:\condor\execute\dir_8640\model\slave_dir\ss_forward_model_20210813.py", line 166, in <module>
    run(input_file= 'input_param.csv')
  File "D:\condor\execute\dir_8640\model\slave_dir\ss_forward_model_20210813.py", line 80, in run
    Sim.mf = flopy.modflow.Modflow.load(os.path.basename(Sim.name_file), model_ws= os.path.dirname(Sim.name_file),
  File "D:\condor\execute\dir_8640\Miniconda3\lib\site-packages\flopy\modflow\mf.py", line 909, in load
    item.package.load(
  File "D:\condor\execute\dir_8640\Miniconda3\lib\site-packages\flopy\modflow\mfuzf1.py", line 1031, in load
    load_util2d("vks", np.float32)
  File "D:\condor\execute\dir_8640\Miniconda3\lib\site-packages\flopy\modflow\mfuzf1.py", line 1018, in load_util2d
    arrays[name] = Util2d.load(
  File "D:\condor\execute\dir_8640\Miniconda3\lib\site-packages\flopy\utils\util_array.py", line 2868, in load
    cr_dict = Util2d.parse_control_record(
  File "D:\condor\execute\dir_8640\Miniconda3\lib\site-packages\flopy\utils\util_array.py", line 3013, in parse_control_record
    if str(raw[0].lower()) in str(free_fmt):
IndexError: list index out of range
Traceback (most recent call last):
  File "D:\condor\execute\dir_8640\model\slave_dir\ss_forward_model_20210813.py", line 166, in <module>
    run(input_file= 'input_param.csv')
  File "D:\condor\execute\dir_8640\model\slave_dir\ss_forward_model_20210813.py", line 80, in run
    Sim.mf = flopy.modflow.Modflow.load(os.path.basename(Sim.name_file), model_ws= os.path.dirname(Sim.name_file),
  File "D:\condor\execute\dir_8640\Miniconda3\lib\site-packages\flopy\modflow\mf.py", line 909, in load
    item.package.load(
  File "D:\condor\execute\dir_8640\Miniconda3\lib\site-packages\flopy\modflow\mfuzf1.py", line 1031, in load
    load_util2d("vks", np.float32)
  File "D:\condor\execute\dir_8640\Miniconda3\lib\site-packages\flopy\modflow\mfuzf1.py", line 1018, in load_util2d
    arrays[name] = Util2d.load(
  File "D:\condor\execute\dir_8640\Miniconda3\lib\site-packages\flopy\utils\util_array.py", line 2868, in load
    cr_dict = Util2d.parse_control_record(
  File "D:\condor\execute\dir_8640\Miniconda3\lib\site-packages\flopy\utils\util_array.py", line 3013, in parse_control_record
    if str(raw[0].lower()) in str(free_fmt):
IndexError: list index out of range
Traceback (most recent call last):
  File "D:\condor\execute\dir_8640\model\slave_dir\ss_forward_model_20210813.py", line 166, in <module>
    run(input_file= 'input_param.csv')
  File "D:\condor\execute\dir_8640\model\slave_dir\ss_forward_model_20210813.py", line 80, in run
    Sim.mf = flopy.modflow.Modflow.load(os.path.basename(Sim.name_file), model_ws= os.path.dirname(Sim.name_file),
  File "D:\condor\execute\dir_8640\Miniconda3\lib\site-packages\flopy\modflow\mf.py", line 909, in load
    item.package.load(
  File "D:\condor\execute\dir_8640\Miniconda3\lib\site-packages\flopy\modflow\mfuzf1.py", line 1031, in load
    load_util2d("vks", np.float32)
  File "D:\condor\execute\dir_8640\Miniconda3\lib\site-packages\flopy\modflow\mfuzf1.py", line 1018, in load_util2d
    arrays[name] = Util2d.load(
  File "D:\condor\execute\dir_8640\Miniconda3\lib\site-packages\flopy\utils\util_array.py", line 2868, in load
    cr_dict = Util2d.parse_control_record(
  File "D:\condor\execute\dir_8640\Miniconda3\lib\site-packages\flopy\utils\util_array.py", line 3013, in parse_control_record
    if str(raw[0].lower()) in str(free_fmt):
IndexError: list index out of range
Traceback (most recent call last):
  File "D:\condor\execute\dir_8640\model\slave_dir\ss_forward_model_20210813.py", line 166, in <module>
    run(input_file= 'input_param.csv')
  File "D:\condor\execute\dir_8640\model\slave_dir\ss_forward_model_20210813.py", line 80, in run
    Sim.mf = flopy.modflow.Modflow.load(os.path.basename(Sim.name_file), model_ws= os.path.dirname(Sim.name_file),
  File "D:\condor\execute\dir_8640\Miniconda3\lib\site-packages\flopy\modflow\mf.py", line 909, in load
    item.package.load(
  File "D:\condor\execute\dir_8640\Miniconda3\lib\site-packages\flopy\modflow\mfuzf1.py", line 1031, in load
    load_util2d("vks", np.float32)
  File "D:\condor\execute\dir_8640\Miniconda3\lib\site-packages\flopy\modflow\mfuzf1.py", line 1018, in load_util2d
    arrays[name] = Util2d.load(
  File "D:\condor\execute\dir_8640\Miniconda3\lib\site-packages\flopy\utils\util_array.py", line 2868, in load
    cr_dict = Util2d.parse_control_record(
  File "D:\condor\execute\dir_8640\Miniconda3\lib\site-packages\flopy\utils\util_array.py", line 3013, in parse_control_record
    if str(raw[0].lower()) in str(free_fmt):
IndexError: list index out of range
Traceback (most recent call last):
  File "D:\condor\execute\dir_8640\model\slave_dir\ss_forward_model_20210813.py", line 166, in <module>
    run(input_file= 'input_param.csv')
  File "D:\condor\execute\dir_8640\model\slave_dir\ss_forward_model_20210813.py", line 80, in run
    Sim.mf = flopy.modflow.Modflow.load(os.path.basename(Sim.name_file), model_ws= os.path.dirname(Sim.name_file),
  File "D:\condor\execute\dir_8640\Miniconda3\lib\site-packages\flopy\modflow\mf.py", line 909, in load
    item.package.load(
  File "D:\condor\execute\dir_8640\Miniconda3\lib\site-packages\flopy\modflow\mfuzf1.py", line 1031, in load
    load_util2d("vks", np.float32)
  File "D:\condor\execute\dir_8640\Miniconda3\lib\site-packages\flopy\modflow\mfuzf1.py", line 1018, in load_util2d
    arrays[name] = Util2d.load(
  File "D:\condor\execute\dir_8640\Miniconda3\lib\site-packages\flopy\utils\util_array.py", line 2868, in load
    cr_dict = Util2d.parse_control_record(
  File "D:\condor\execute\dir_8640\Miniconda3\lib\site-packages\flopy\utils\util_array.py", line 3013, in parse_control_record
    if str(raw[0].lower()) in str(free_fmt):
IndexError: list index out of range
