                                  MODFLOW-NWT-SWR1 
      U.S. GEOLOGICAL SURVEY MODULAR FINITE-DIFFERENCE GROUNDWATER-FLOW MODEL
                             VERSION 1.1.4 4/01/2018
                    BASED ON MODFLOW-2005 VERSION 1.12.00 02/03/2017

 LIST FILE: rr_ss_v0.list
                         UNIT    2

 OPENING rr_ss_v0.dis
 FILE TYPE:DIS   UNIT   11   STATUS:OLD    
 FORMAT:FORMATTED              ACCESS:SEQUENTIAL          

 OPENING rr_ss_v0.bas
 FILE TYPE:BAS6   UNIT   13   STATUS:OLD    
 FORMAT:FORMATTED              ACCESS:SEQUENTIAL          

 OPENING rr_ss_v0.upw
 FILE TYPE:UPW   UNIT   31   STATUS:OLD    
 FORMAT:FORMATTED              ACCESS:SEQUENTIAL          

 OPENING rr_ss_v0.sfr
 FILE TYPE:SFR   UNIT   17   STATUS:OLD    
 FORMAT:FORMATTED              ACCESS:SEQUENTIAL          
#LAK              119  rr_ss_v0.lak                                                                                                                                                                                                                                                                         

 OPENING rr_ss_v0.oc
 FILE TYPE:OC   UNIT   14   STATUS:OLD    
 FORMAT:FORMATTED              ACCESS:SEQUENTIAL          

 OPENING rr_ss_v0.uzf
 FILE TYPE:UZF   UNIT   19   STATUS:OLD    
 FORMAT:FORMATTED              ACCESS:SEQUENTIAL          

 OPENING rr_ss_v0.nwt
 FILE TYPE:NWT   UNIT   32   STATUS:OLD    
 FORMAT:FORMATTED              ACCESS:SEQUENTIAL          

 OPENING D:\Workspace\projects\RussianRiver\modflow\model_files\Steady_state\LAKE_ID_1.dat
 FILE TYPE:DATA   UNIT 1001   STATUS:UNKNOWN
 FORMAT:FORMATTED              ACCESS:SEQUENTIAL          

 OPENING D:\Workspace\projects\RussianRiver\modflow\model_files\Steady_state\LAKE_ID_2.dat
 FILE TYPE:DATA   UNIT 1002   STATUS:UNKNOWN
 FORMAT:FORMATTED              ACCESS:SEQUENTIAL          

 OPENING D:\Workspace\projects\RussianRiver\modflow\model_files\Steady_state\LAKE_ID_3.dat
 FILE TYPE:DATA   UNIT 1003   STATUS:UNKNOWN
 FORMAT:FORMATTED              ACCESS:SEQUENTIAL          

 OPENING D:\Workspace\projects\RussianRiver\modflow\model_files\Steady_state\LAKE_ID_4.dat
 FILE TYPE:DATA   UNIT 1004   STATUS:UNKNOWN
 FORMAT:FORMATTED              ACCESS:SEQUENTIAL          

 OPENING D:\Workspace\projects\RussianRiver\modflow\model_files\Steady_state\LAKE_ID_5.dat
 FILE TYPE:DATA   UNIT 1005   STATUS:UNKNOWN
 FORMAT:FORMATTED              ACCESS:SEQUENTIAL          

 OPENING D:\Workspace\projects\RussianRiver\modflow\model_files\Steady_state\LAKE_ID_6.dat
 FILE TYPE:DATA   UNIT 1006   STATUS:UNKNOWN
 FORMAT:FORMATTED              ACCESS:SEQUENTIAL          

 OPENING D:\Workspace\projects\RussianRiver\modflow\model_files\Steady_state\LAKE_ID_7.dat
 FILE TYPE:DATA   UNIT 1007   STATUS:UNKNOWN
 FORMAT:FORMATTED              ACCESS:SEQUENTIAL          

 OPENING D:\Workspace\projects\RussianRiver\modflow\model_files\Steady_state\LAKE_ID_8.dat
 FILE TYPE:DATA   UNIT 1008   STATUS:UNKNOWN
 FORMAT:FORMATTED              ACCESS:SEQUENTIAL          

 OPENING D:\Workspace\projects\RussianRiver\modflow\model_files\Steady_state\LAKE_ID_9.dat
 FILE TYPE:DATA   UNIT 1009   STATUS:UNKNOWN
 FORMAT:FORMATTED              ACCESS:SEQUENTIAL          

 OPENING D:\Workspace\projects\RussianRiver\modflow\model_files\Steady_state\LAKE_ID_10.dat
 FILE TYPE:DATA   UNIT 1010   STATUS:UNKNOWN
 FORMAT:FORMATTED              ACCESS:SEQUENTIAL          

 OPENING D:\Workspace\projects\RussianRiver\modflow\model_files\Steady_state\LAKE_ID_11.dat
 FILE TYPE:DATA   UNIT 1011   STATUS:UNKNOWN
 FORMAT:FORMATTED              ACCESS:SEQUENTIAL          

 OPENING rr_ss_v0.cbc
 FILE TYPE:DATA(BINARY)   UNIT   55   STATUS:REPLACE
 FORMAT:BINARY                 ACCESS:SEQUENTIAL          

 OPENING rr_ss_v0.sfr.out
 FILE TYPE:DATA   UNIT   81   STATUS:UNKNOWN
 FORMAT:FORMATTED              ACCESS:SEQUENTIAL          

 OPENING rr_ss_v0.hds
 FILE TYPE:DATA(BINARY)   UNIT   51   STATUS:REPLACE
 FORMAT:BINARY                 ACCESS:SEQUENTIAL          

 BAS -- BASIC PACKAGE, VERSION 1.1.4, 4/01/2018 INPUT READ FROM UNIT   13
 
 MODFLOW was compiled using mixed precision
 Precision of REAL variables:           6
 Precision of DOUBLE PRECISION variables:          15

 DISCRETIZATION INPUT DATA READ FROM UNIT   11
 # DIS package for  MODFLOW-NWT, generated by Flopy.
    3 LAYERS       411 ROWS       253 COLUMNS
    1 STRESS PERIOD(S) IN SIMULATION
 MODEL TIME UNIT IS DAYS
 MODEL LENGTH UNIT IS METERS
  Confining bed flag for each layer:
   0   0   0

                     DELR =   300.000    

                     DELC =   300.000    



           TOP ELEVATION OF LAYER 1
 READING ON UNIT   11 WITH FORMAT: (253E15.6)          



             MODEL LAYER BOTTOM EL. FOR LAYER   1
 READING ON UNIT   11 WITH FORMAT: (253E15.6)          



             MODEL LAYER BOTTOM EL. FOR LAYER   2
 READING ON UNIT   11 WITH FORMAT: (253E15.6)          



             MODEL LAYER BOTTOM EL. FOR LAYER   3
 READING ON UNIT   11 WITH FORMAT: (253E15.6)          


 STRESS PERIOD     LENGTH       TIME STEPS     MULTIPLIER FOR DELT    SS FLAG
 ----------------------------------------------------------------------------
        1         31.00000          1                    1.000         SS

 STEADY-STATE SIMULATION



 
 # BAS6 package for  MODFLOW-NWT, generated by Flopy.                            
 THE FREE FORMAT OPTION HAS BEEN SELECTED



                     BOUNDARY ARRAY FOR LAYER   1
 READING ON UNIT   13 WITH FORMAT: (253I10)            



                     BOUNDARY ARRAY FOR LAYER   2
 READING ON UNIT   13 WITH FORMAT: (253I10)            



                     BOUNDARY ARRAY FOR LAYER   3
 READING ON UNIT   13 WITH FORMAT: (253I10)            

 AQUIFER HEAD WILL BE SET TO  -999.99     AT ALL NO-FLOW NODES (IBOUND=0).



                       INITIAL HEAD FOR LAYER   1
 READING ON UNIT   13 WITH FORMAT: (253E15.6)          



                       INITIAL HEAD FOR LAYER   2
 READING ON UNIT   13 WITH FORMAT: (253E15.6)          



                       INITIAL HEAD FOR LAYER   3
 READING ON UNIT   13 WITH FORMAT: (253E15.6)          
 # OC package for  MODFLOW-NWT, generated by Flopy.

 OUTPUT CONTROL IS SPECIFIED ONLY AT TIME STEPS FOR WHICH OUTPUT IS DESIRED
 COMPACT CELL-BY-CELL BUDGET FILES WILL BE WRITTEN
 AUXILIARY DATA WILL BE SAVED IN CELL-BY-CELL BUDGET FILES
 # NWT package for  MODFLOW-NWT, generated by Flopy.

 NWT1 -- Newton Solver, VERSION 1.1.4, 4/01/2018
         INPUT READ FROM UNIT 32

 SPECIFIED OPTION:
 SOLVER INPUT VALUES ARE SPECIFIED BY USER
 ***XMD linear solver will be used***
 
   CONVERGENCE CRITERION OF   0.500000E-01 FOR HEAD SOLUTION
   AND A TOLERANCE OF   0.200000E+03 FOR FLOW SOLUTION AND 
   A MAXIMUM OF  1000 OUTER ITERATIONS. 


   D-B-D REDUCTION FACTOR OF    0.970000E+00 AND 
   A D-B-D INCREASE FACTOR OF    0.100000E-03 AND 
   A D-B-D RELAXATION OF    0.000000E+00 AND 
   A MOMENTUM FACTOR OF    0.100000E+00 .


 ***BACKTRACKING IS INACTIVE***
 
 **Active cell surrounded by inactive cells**
 **Resetting cell to inactive**
 ROW=          64 COL=          43 LAY=           1
 
 
 **Active cell surrounded by inactive cells**
 **Resetting cell to inactive**
 ROW=         368 COL=         133 LAY=           2
 
 XMD -- LINEAR SOLUTION BY XMD PACKAGE VERSION 1.30
     BY MOTOMU IBARAKI, OHIO STATE UNIVERSITY, COLOMBUS, OH
                 INPUT READ FROM UNIT 32
 ACCELERATION METHOD                    (IACL) =         1
 NODE ORDERING FLAG                   (NORDER) =         0
 LEVEL OF FILL                         (LEVEL) =         3
 MAXIMUM NUMBER OF ORTHOGONALIZATIONS  (NORTH) =         7
 INDEX FOR USING REDUCED SYSTEM      (IREDSYS) =         0
 RESID. REDUCTION CONVERGE CRITERION  (RRCTOL) =  0.000000E+00
 INDEX FOR USING DROP TOLERANCE     (IDROPTOL) =         1
 DROP TOLERANCE VALUE                  (EPSRN) =  0.500000E-02
 CONVERGENCE CRITERIA OF           (HCLOSEXMD) =  0.100000E-02
 MAX. NUMBER OF LINEAR ITERATIONS  (MXITERXMD) =       200


 UPW1 -- UPSTREAM WEIGHTING FLOW PACKAGE, VERSION 1.1.4, 4/01/2018
         INPUT READ FROM UNIT 31

 # UPW package for  MODFLOW-NWT, generated by Flopy.
 No named parameters

   LAYER FLAGS:
 LAYER       LAYTYP          LAYAVG    CHANI           LAYVKA           LAYWET
 ---------------------------------------------------------------------------
    1             1             0     1.000E+00             0             0
    2             1             0     1.000E+00             0             0
    3             1             0     1.000E+00             0             0

   INTERPRETATION OF LAYER FLAGS:
                        INTERBLOCK     HORIZONTAL    DATA IN
         LAYER TYPE   TRANSMISSIVITY   ANISOTROPY   ARRAY VKA   WETTABILITY
 LAYER   (LAYTYP)        (LAYAVG)      (CHANI)     (LAYVKA)       (LAYWET)
 ---------------------------------------------------------------------------
    1   CONVERTIBLE      HARMONIC     1.000E+00    VERTICAL K  NON-WETTABLE
    2   CONVERTIBLE      HARMONIC     1.000E+00    VERTICAL K  NON-WETTABLE
    3   CONVERTIBLE      HARMONIC     1.000E+00    VERTICAL K  NON-WETTABLE



              HYD. COND. ALONG ROWS FOR LAYER   1
 READING ON UNIT   31 WITH FORMAT: (253E15.6)          



                VERTICAL HYD. COND. FOR LAYER   1
 READING ON UNIT   31 WITH FORMAT: (253E15.6)          

    HYD. COND. ALONG ROWS =  1.000000E-05 FOR LAYER   2

      VERTICAL HYD. COND. =  0.180000     FOR LAYER   2



              HYD. COND. ALONG ROWS FOR LAYER   3
 READING ON UNIT   31 WITH FORMAT: (253E15.6)          



                VERTICAL HYD. COND. FOR LAYER   3
 READING ON UNIT   31 WITH FORMAT: (253E15.6)          
 NODE (LAYER,ROW,COL)   1    70    46 ELIMINATED BECAUSE ALL HYDRAULIC
 CONDUCTIVITIES TO NODE ARE 0
 NODE (LAYER,ROW,COL)   1    85    71 ELIMINATED BECAUSE ALL HYDRAULIC
 CONDUCTIVITIES TO NODE ARE 0
 NODE (LAYER,ROW,COL)   1    86    70 ELIMINATED BECAUSE ALL HYDRAULIC
 CONDUCTIVITIES TO NODE ARE 0
 NODE (LAYER,ROW,COL)   1    87    69 ELIMINATED BECAUSE ALL HYDRAULIC
 CONDUCTIVITIES TO NODE ARE 0
 NODE (LAYER,ROW,COL)   1    89    64 ELIMINATED BECAUSE ALL HYDRAULIC
 CONDUCTIVITIES TO NODE ARE 0
 NODE (LAYER,ROW,COL)   1    89    65 ELIMINATED BECAUSE ALL HYDRAULIC
 CONDUCTIVITIES TO NODE ARE 0
 NODE (LAYER,ROW,COL)   1    98    69 ELIMINATED BECAUSE ALL HYDRAULIC
 CONDUCTIVITIES TO NODE ARE 0
 NODE (LAYER,ROW,COL)   1   100    68 ELIMINATED BECAUSE ALL HYDRAULIC
 CONDUCTIVITIES TO NODE ARE 0
 NODE (LAYER,ROW,COL)   1   100    69 ELIMINATED BECAUSE ALL HYDRAULIC
 CONDUCTIVITIES TO NODE ARE 0
 NODE (LAYER,ROW,COL)   3     3    67 ELIMINATED BECAUSE ALL HYDRAULIC
 CONDUCTIVITIES TO NODE ARE 0
 NODE (LAYER,ROW,COL)   3     4    67 ELIMINATED BECAUSE ALL HYDRAULIC
 CONDUCTIVITIES TO NODE ARE 0
 NODE (LAYER,ROW,COL)   3     4    68 ELIMINATED BECAUSE ALL HYDRAULIC
 CONDUCTIVITIES TO NODE ARE 0
 NODE (LAYER,ROW,COL)   3     4    69 ELIMINATED BECAUSE ALL HYDRAULIC
 CONDUCTIVITIES TO NODE ARE 0
 NODE (LAYER,ROW,COL)   3     5    66 ELIMINATED BECAUSE ALL HYDRAULIC
 CONDUCTIVITIES TO NODE ARE 0
 NODE (LAYER,ROW,COL)   3     5    67 ELIMINATED BECAUSE ALL HYDRAULIC
 CONDUCTIVITIES TO NODE ARE 0
 NODE (LAYER,ROW,COL)   3     5    68 ELIMINATED BECAUSE ALL HYDRAULIC
 CONDUCTIVITIES TO NODE ARE 0
 NODE (LAYER,ROW,COL)   3     5    69 ELIMINATED BECAUSE ALL HYDRAULIC
 CONDUCTIVITIES TO NODE ARE 0
 NODE (LAYER,ROW,COL)   3     5    70 ELIMINATED BECAUSE ALL HYDRAULIC
 CONDUCTIVITIES TO NODE ARE 0
 NODE (LAYER,ROW,COL)   3     5    71 ELIMINATED BECAUSE ALL HYDRAULIC
 CONDUCTIVITIES TO NODE ARE 0
 NODE (LAYER,ROW,COL)   3     6    66 ELIMINATED BECAUSE ALL HYDRAULIC
 CONDUCTIVITIES TO NODE ARE 0
 NODE (LAYER,ROW,COL)   3     6    67 ELIMINATED BECAUSE ALL HYDRAULIC
 CONDUCTIVITIES TO NODE ARE 0
 NODE (LAYER,ROW,COL)   3     6    68 ELIMINATED BECAUSE ALL HYDRAULIC
 CONDUCTIVITIES TO NODE ARE 0
 NODE (LAYER,ROW,COL)   3     6    69 ELIMINATED BECAUSE ALL HYDRAULIC
 CONDUCTIVITIES TO NODE ARE 0
 NODE (LAYER,ROW,COL)   3     6    70 ELIMINATED BECAUSE ALL HYDRAULIC
 CONDUCTIVITIES TO NODE ARE 0
 NODE (LAYER,ROW,COL)   3     6    71 ELIMINATED BECAUSE ALL HYDRAULIC
 CONDUCTIVITIES TO NODE ARE 0
 NODE (LAYER,ROW,COL)   3     6    72 ELIMINATED BECAUSE ALL HYDRAULIC
 CONDUCTIVITIES TO NODE ARE 0
 NODE (LAYER,ROW,COL)   3     6    73 ELIMINATED BECAUSE ALL HYDRAULIC
 CONDUCTIVITIES TO NODE ARE 0
 NODE (LAYER,ROW,COL)   3     7    66 ELIMINATED BECAUSE ALL HYDRAULIC
 CONDUCTIVITIES TO NODE ARE 0
 NODE (LAYER,ROW,COL)   3     7    67 ELIMINATED BECAUSE ALL HYDRAULIC
 CONDUCTIVITIES TO NODE ARE 0
 NODE (LAYER,ROW,COL)   3     7    68 ELIMINATED BECAUSE ALL HYDRAULIC
 CONDUCTIVITIES TO NODE ARE 0
 NODE (LAYER,ROW,COL)   3     7    69 ELIMINATED BECAUSE ALL HYDRAULIC
 CONDUCTIVITIES TO NODE ARE 0
 NODE (LAYER,ROW,COL)   3     7    70 ELIMINATED BECAUSE ALL HYDRAULIC
 CONDUCTIVITIES TO NODE ARE 0
 NODE (LAYER,ROW,COL)   3     7    71 ELIMINATED BECAUSE ALL HYDRAULIC
 CONDUCTIVITIES TO NODE ARE 0
 NODE (LAYER,ROW,COL)   3     7    72 ELIMINATED BECAUSE ALL HYDRAULIC
 CONDUCTIVITIES TO NODE ARE 0
 NODE (LAYER,ROW,COL)   3     7    73 ELIMINATED BECAUSE ALL HYDRAULIC
 CONDUCTIVITIES TO NODE ARE 0
 NODE (LAYER,ROW,COL)   3     7    74 ELIMINATED BECAUSE ALL HYDRAULIC
 CONDUCTIVITIES TO NODE ARE 0
 NODE (LAYER,ROW,COL)   3     7    75 ELIMINATED BECAUSE ALL HYDRAULIC
 CONDUCTIVITIES TO NODE ARE 0
 NODE (LAYER,ROW,COL)   3     8    43 ELIMINATED BECAUSE ALL HYDRAULIC
 CONDUCTIVITIES TO NODE ARE 0
 NODE (LAYER,ROW,COL)   3     8    44 ELIMINATED BECAUSE ALL HYDRAULIC
 CONDUCTIVITIES TO NODE ARE 0
 NODE (LAYER,ROW,COL)   3     8    45 ELIMINATED BECAUSE ALL HYDRAULIC
 CONDUCTIVITIES TO NODE ARE 0
 NODE (LAYER,ROW,COL)   3     8    46 ELIMINATED BECAUSE ALL HYDRAULIC
 CONDUCTIVITIES TO NODE ARE 0
 NODE (LAYER,ROW,COL)   3     8    47 ELIMINATED BECAUSE ALL HYDRAULIC
 CONDUCTIVITIES TO NODE ARE 0
 NODE (LAYER,ROW,COL)   3     8    67 ELIMINATED BECAUSE ALL HYDRAULIC
 CONDUCTIVITIES TO NODE ARE 0
 NODE (LAYER,ROW,COL)   3     8    68 ELIMINATED BECAUSE ALL HYDRAULIC
 CONDUCTIVITIES TO NODE ARE 0
 NODE (LAYER,ROW,COL)   3     8    69 ELIMINATED BECAUSE ALL HYDRAULIC
 CONDUCTIVITIES TO NODE ARE 0
 NODE (LAYER,ROW,COL)   3     8    70 ELIMINATED BECAUSE ALL HYDRAULIC
 CONDUCTIVITIES TO NODE ARE 0
 NODE (LAYER,ROW,COL)   3     8    71 ELIMINATED BECAUSE ALL HYDRAULIC
 CONDUCTIVITIES TO NODE ARE 0
 NODE (LAYER,ROW,COL)   3     8    72 ELIMINATED BECAUSE ALL HYDRAULIC
 CONDUCTIVITIES TO NODE ARE 0
 NODE (LAYER,ROW,COL)   3     8    73 ELIMINATED BECAUSE ALL HYDRAULIC
 CONDUCTIVITIES TO NODE ARE 0
 NODE (LAYER,ROW,COL)   3     8    74 ELIMINATED BECAUSE ALL HYDRAULIC
 CONDUCTIVITIES TO NODE ARE 0
 NODE (LAYER,ROW,COL)   3     8    75 ELIMINATED BECAUSE ALL HYDRAULIC
 CONDUCTIVITIES TO NODE ARE 0
 NODE (LAYER,ROW,COL)   3     9    44 ELIMINATED BECAUSE ALL HYDRAULIC
 CONDUCTIVITIES TO NODE ARE 0
 NODE (LAYER,ROW,COL)   3     9    45 ELIMINATED BECAUSE ALL HYDRAULIC
 CONDUCTIVITIES TO NODE ARE 0
 NODE (LAYER,ROW,COL)   3     9    46 ELIMINATED BECAUSE ALL HYDRAULIC
 CONDUCTIVITIES TO NODE ARE 0
 NODE (LAYER,ROW,COL)   3     9    47 ELIMINATED BECAUSE ALL HYDRAULIC
 CONDUCTIVITIES TO NODE ARE 0
 NODE (LAYER,ROW,COL)   3     9    48 ELIMINATED BECAUSE ALL HYDRAULIC
 CONDUCTIVITIES TO NODE ARE 0
 NODE (LAYER,ROW,COL)   3     9    70 ELIMINATED BECAUSE ALL HYDRAULIC
 CONDUCTIVITIES TO NODE ARE 0
 NODE (LAYER,ROW,COL)   3     9    71 ELIMINATED BECAUSE ALL HYDRAULIC
 CONDUCTIVITIES TO NODE ARE 0
 NODE (LAYER,ROW,COL)   3     9    72 ELIMINATED BECAUSE ALL HYDRAULIC
 CONDUCTIVITIES TO NODE ARE 0
 NODE (LAYER,ROW,COL)   3     9    73 ELIMINATED BECAUSE ALL HYDRAULIC
 CONDUCTIVITIES TO NODE ARE 0
 NODE (LAYER,ROW,COL)   3     9    74 ELIMINATED BECAUSE ALL HYDRAULIC
 CONDUCTIVITIES TO NODE ARE 0
 NODE (LAYER,ROW,COL)   3     9    75 ELIMINATED BECAUSE ALL HYDRAULIC
 CONDUCTIVITIES TO NODE ARE 0
 NODE (LAYER,ROW,COL)   3     9    76 ELIMINATED BECAUSE ALL HYDRAULIC
 CONDUCTIVITIES TO NODE ARE 0
 NODE (LAYER,ROW,COL)   3    10    44 ELIMINATED BECAUSE ALL HYDRAULIC
 CONDUCTIVITIES TO NODE ARE 0
 NODE (LAYER,ROW,COL)   3    10    45 ELIMINATED BECAUSE ALL HYDRAULIC
 CONDUCTIVITIES TO NODE ARE 0
 NODE (LAYER,ROW,COL)   3    10    46 ELIMINATED BECAUSE ALL HYDRAULIC
 CONDUCTIVITIES TO NODE ARE 0
 NODE (LAYER,ROW,COL)   3    10    47 ELIMINATED BECAUSE ALL HYDRAULIC
 CONDUCTIVITIES TO NODE ARE 0
 NODE (LAYER,ROW,COL)   3    10    48 ELIMINATED BECAUSE ALL HYDRAULIC
 CONDUCTIVITIES TO NODE ARE 0
 NODE (LAYER,ROW,COL)   3    10    49 ELIMINATED BECAUSE ALL HYDRAULIC
 CONDUCTIVITIES TO NODE ARE 0
 NODE (LAYER,ROW,COL)   3    10    50 ELIMINATED BECAUSE ALL HYDRAULIC
 CONDUCTIVITIES TO NODE ARE 0
 NODE (LAYER,ROW,COL)   3    10    57 ELIMINATED BECAUSE ALL HYDRAULIC
 CONDUCTIVITIES TO NODE ARE 0
 NODE (LAYER,ROW,COL)   3    10    59 ELIMINATED BECAUSE ALL HYDRAULIC
 CONDUCTIVITIES TO NODE ARE 0
 NODE (LAYER,ROW,COL)   3    10    66 ELIMINATED BECAUSE ALL HYDRAULIC
 CONDUCTIVITIES TO NODE ARE 0
 NODE (LAYER,ROW,COL)   3    10    70 ELIMINATED BECAUSE ALL HYDRAULIC
 CONDUCTIVITIES TO NODE ARE 0
 NODE (LAYER,ROW,COL)   3    10    71 ELIMINATED BECAUSE ALL HYDRAULIC
 CONDUCTIVITIES TO NODE ARE 0
 NODE (LAYER,ROW,COL)   3    10    72 ELIMINATED BECAUSE ALL HYDRAULIC
 CONDUCTIVITIES TO NODE ARE 0
 NODE (LAYER,ROW,COL)   3    10    73 ELIMINATED BECAUSE ALL HYDRAULIC
 CONDUCTIVITIES TO NODE ARE 0
 NODE (LAYER,ROW,COL)   3    10    74 ELIMINATED BECAUSE ALL HYDRAULIC
 CONDUCTIVITIES TO NODE ARE 0
 NODE (LAYER,ROW,COL)   3    10    75 ELIMINATED BECAUSE ALL HYDRAULIC
 CONDUCTIVITIES TO NODE ARE 0
 NODE (LAYER,ROW,COL)   3    10    76 ELIMINATED BECAUSE ALL HYDRAULIC
 CONDUCTIVITIES TO NODE ARE 0
 NODE (LAYER,ROW,COL)   3    10    77 ELIMINATED BECAUSE ALL HYDRAULIC
 CONDUCTIVITIES TO NODE ARE 0
 NODE (LAYER,ROW,COL)   3    11    43 ELIMINATED BECAUSE ALL HYDRAULIC
 CONDUCTIVITIES TO NODE ARE 0
 NODE (LAYER,ROW,COL)   3    11    44 ELIMINATED BECAUSE ALL HYDRAULIC
 CONDUCTIVITIES TO NODE ARE 0
 NODE (LAYER,ROW,COL)   3    11    45 ELIMINATED BECAUSE ALL HYDRAULIC
 CONDUCTIVITIES TO NODE ARE 0
 NODE (LAYER,ROW,COL)   3    11    46 ELIMINATED BECAUSE ALL HYDRAULIC
 CONDUCTIVITIES TO NODE ARE 0
 NODE (LAYER,ROW,COL)   3    11    47 ELIMINATED BECAUSE ALL HYDRAULIC
 CONDUCTIVITIES TO NODE ARE 0
 NODE (LAYER,ROW,COL)   3    11    48 ELIMINATED BECAUSE ALL HYDRAULIC
 CONDUCTIVITIES TO NODE ARE 0
 NODE (LAYER,ROW,COL)   3    11    49 ELIMINATED BECAUSE ALL HYDRAULIC
 CONDUCTIVITIES TO NODE ARE 0
 NODE (LAYER,ROW,COL)   3    11    50 ELIMINATED BECAUSE ALL HYDRAULIC
 CONDUCTIVITIES TO NODE ARE 0
 NODE (LAYER,ROW,COL)   3    11    51 ELIMINATED BECAUSE ALL HYDRAULIC
 CONDUCTIVITIES TO NODE ARE 0
 NODE (LAYER,ROW,COL)   3    11    57 ELIMINATED BECAUSE ALL HYDRAULIC
 CONDUCTIVITIES TO NODE ARE 0
 NODE (LAYER,ROW,COL)   3    11    58 ELIMINATED BECAUSE ALL HYDRAULIC
 CONDUCTIVITIES TO NODE ARE 0
 NODE (LAYER,ROW,COL)   3    11    59 ELIMINATED BECAUSE ALL HYDRAULIC
 CONDUCTIVITIES TO NODE ARE 0
 NODE (LAYER,ROW,COL)   3    11    60 ELIMINATED BECAUSE ALL HYDRAULIC
 CONDUCTIVITIES TO NODE ARE 0
 NODE (LAYER,ROW,COL)   3    11    61 ELIMINATED BECAUSE ALL HYDRAULIC
 CONDUCTIVITIES TO NODE ARE 0
 NODE (LAYER,ROW,COL)   3    11    62 ELIMINATED BECAUSE ALL HYDRAULIC
 CONDUCTIVITIES TO NODE ARE 0
 NODE (LAYER,ROW,COL)   3    11    63 ELIMINATED BECAUSE ALL HYDRAULIC
 CONDUCTIVITIES TO NODE ARE 0
 NODE (LAYER,ROW,COL)   3    11    66 ELIMINATED BECAUSE ALL HYDRAULIC
 CONDUCTIVITIES TO NODE ARE 0
 NODE (LAYER,ROW,COL)   3    11    71 ELIMINATED BECAUSE ALL HYDRAULIC
 CONDUCTIVITIES TO NODE ARE 0
 NODE (LAYER,ROW,COL)   3    11    72 ELIMINATED BECAUSE ALL HYDRAULIC
 CONDUCTIVITIES TO NODE ARE 0
 NODE (LAYER,ROW,COL)   3    11    73 ELIMINATED BECAUSE ALL HYDRAULIC
 CONDUCTIVITIES TO NODE ARE 0
 NODE (LAYER,ROW,COL)   3    11    74 ELIMINATED BECAUSE ALL HYDRAULIC
 CONDUCTIVITIES TO NODE ARE 0
 NODE (LAYER,ROW,COL)   3    11    75 ELIMINATED BECAUSE ALL HYDRAULIC
 CONDUCTIVITIES TO NODE ARE 0
 NODE (LAYER,ROW,COL)   3    11    76 ELIMINATED BECAUSE ALL HYDRAULIC
 CONDUCTIVITIES TO NODE ARE 0
 NODE (LAYER,ROW,COL)   3    11    77 ELIMINATED BECAUSE ALL HYDRAULIC
 CONDUCTIVITIES TO NODE ARE 0
 NODE (LAYER,ROW,COL)   3    11    78 ELIMINATED BECAUSE ALL HYDRAULIC
 CONDUCTIVITIES TO NODE ARE 0
 NODE (LAYER,ROW,COL)   3    11    79 ELIMINATED BECAUSE ALL HYDRAULIC
 CONDUCTIVITIES TO NODE ARE 0
 NODE (LAYER,ROW,COL)   3    11    80 ELIMINATED BECAUSE ALL HYDRAULIC
 CONDUCTIVITIES TO NODE ARE 0
 NODE (LAYER,ROW,COL)   3    12    42 ELIMINATED BECAUSE ALL HYDRAULIC
 CONDUCTIVITIES TO NODE ARE 0
 NODE (LAYER,ROW,COL)   3    12    43 ELIMINATED BECAUSE ALL HYDRAULIC
 CONDUCTIVITIES TO NODE ARE 0
 NODE (LAYER,ROW,COL)   3    12    44 ELIMINATED BECAUSE ALL HYDRAULIC
 CONDUCTIVITIES TO NODE ARE 0
 NODE (LAYER,ROW,COL)   3    12    48 ELIMINATED BECAUSE ALL HYDRAULIC
 CONDUCTIVITIES TO NODE ARE 0
 NODE (LAYER,ROW,COL)   3    12    49 ELIMINATED BECAUSE ALL HYDRAULIC
 CONDUCTIVITIES TO NODE ARE 0
 NODE (LAYER,ROW,COL)   3    12    50 ELIMINATED BECAUSE ALL HYDRAULIC
 CONDUCTIVITIES TO NODE ARE 0
 NODE (LAYER,ROW,COL)   3    12    51 ELIMINATED BECAUSE ALL HYDRAULIC
 CONDUCTIVITIES TO NODE ARE 0
 NODE (LAYER,ROW,COL)   3    12    52 ELIMINATED BECAUSE ALL HYDRAULIC
 CONDUCTIVITIES TO NODE ARE 0
 NODE (LAYER,ROW,COL)   3    12    57 ELIMINATED BECAUSE ALL HYDRAULIC
 CONDUCTIVITIES TO NODE ARE 0
 NODE (LAYER,ROW,COL)   3    12    58 ELIMINATED BECAUSE ALL HYDRAULIC
 CONDUCTIVITIES TO NODE ARE 0
 NODE (LAYER,ROW,COL)   3    12    59 ELIMINATED BECAUSE ALL HYDRAULIC
 CONDUCTIVITIES TO NODE ARE 0
 NODE (LAYER,ROW,COL)   3    12    60 ELIMINATED BECAUSE ALL HYDRAULIC
 CONDUCTIVITIES TO NODE ARE 0
 NODE (LAYER,ROW,COL)   3    12    61 ELIMINATED BECAUSE ALL HYDRAULIC
 CONDUCTIVITIES TO NODE ARE 0
 NODE (LAYER,ROW,COL)   3    12    62 ELIMINATED BECAUSE ALL HYDRAULIC
 CONDUCTIVITIES TO NODE ARE 0
 NODE (LAYER,ROW,COL)   3    12    63 ELIMINATED BECAUSE ALL HYDRAULIC
 CONDUCTIVITIES TO NODE ARE 0
 NODE (LAYER,ROW,COL)   3    12    64 ELIMINATED BECAUSE ALL HYDRAULIC
 CONDUCTIVITIES TO NODE ARE 0
 NODE (LAYER,ROW,COL)   3    12    65 ELIMINATED BECAUSE ALL HYDRAULIC
 CONDUCTIVITIES TO NODE ARE 0
 NODE (LAYER,ROW,COL)   3    12    66 ELIMINATED BECAUSE ALL HYDRAULIC
 CONDUCTIVITIES TO NODE ARE 0
 NODE (LAYER,ROW,COL)   3    12    72 ELIMINATED BECAUSE ALL HYDRAULIC
 CONDUCTIVITIES TO NODE ARE 0
 NODE (LAYER,ROW,COL)   3    12    73 ELIMINATED BECAUSE ALL HYDRAULIC
 CONDUCTIVITIES TO NODE ARE 0
 NODE (LAYER,ROW,COL)   3    12    74 ELIMINATED BECAUSE ALL HYDRAULIC
 CONDUCTIVITIES TO NODE ARE 0
 NODE (LAYER,ROW,COL)   3    12    75 ELIMINATED BECAUSE ALL HYDRAULIC
 CONDUCTIVITIES TO NODE ARE 0
 NODE (LAYER,ROW,COL)   3    12    76 ELIMINATED BECAUSE ALL HYDRAULIC
 CONDUCTIVITIES TO NODE ARE 0
 NODE (LAYER,ROW,COL)   3    12    77 ELIMINATED BECAUSE ALL HYDRAULIC
 CONDUCTIVITIES TO NODE ARE 0
 NODE (LAYER,ROW,COL)   3    12    78 ELIMINATED BECAUSE ALL HYDRAULIC
 CONDUCTIVITIES TO NODE ARE 0
 NODE (LAYER,ROW,COL)   3    12    79 ELIMINATED BECAUSE ALL HYDRAULIC
 CONDUCTIVITIES TO NODE ARE 0
 NODE (LAYER,ROW,COL)   3    12    80 ELIMINATED BECAUSE ALL HYDRAULIC
 CONDUCTIVITIES TO NODE ARE 0
 NODE (LAYER,ROW,COL)   3    12    81 ELIMINATED BECAUSE ALL HYDRAULIC
 CONDUCTIVITIES TO NODE ARE 0
 NODE (LAYER,ROW,COL)   3    13    42 ELIMINATED BECAUSE ALL HYDRAULIC
 CONDUCTIVITIES TO NODE ARE 0
 NODE (LAYER,ROW,COL)   3    13    43 ELIMINATED BECAUSE ALL HYDRAULIC
 CONDUCTIVITIES TO NODE ARE 0
 NODE (LAYER,ROW,COL)   3    13    44 ELIMINATED BECAUSE ALL HYDRAULIC
 CONDUCTIVITIES TO NODE ARE 0
 NODE (LAYER,ROW,COL)   3    13    49 ELIMINATED BECAUSE ALL HYDRAULIC
 CONDUCTIVITIES TO NODE ARE 0
 NODE (LAYER,ROW,COL)   3    13    50 ELIMINATED BECAUSE ALL HYDRAULIC
 CONDUCTIVITIES TO NODE ARE 0
 NODE (LAYER,ROW,COL)   3    13    51 ELIMINATED BECAUSE ALL HYDRAULIC
 CONDUCTIVITIES TO NODE ARE 0
 NODE (LAYER,ROW,COL)   3    13    52 ELIMINATED BECAUSE ALL HYDRAULIC
 CONDUCTIVITIES TO NODE ARE 0
 NODE (LAYER,ROW,COL)   3    13    56 ELIMINATED BECAUSE ALL HYDRAULIC
 CONDUCTIVITIES TO NODE ARE 0
 NODE (LAYER,ROW,COL)   3    13    57 ELIMINATED BECAUSE ALL HYDRAULIC
 CONDUCTIVITIES TO NODE ARE 0
 NODE (LAYER,ROW,COL)   3    13    58 ELIMINATED BECAUSE ALL HYDRAULIC
 CONDUCTIVITIES TO NODE ARE 0
 NODE (LAYER,ROW,COL)   3    13    59 ELIMINATED BECAUSE ALL HYDRAULIC
 CONDUCTIVITIES TO NODE ARE 0
 NODE (LAYER,ROW,COL)   3    13    60 ELIMINATED BECAUSE ALL HYDRAULIC
 CONDUCTIVITIES TO NODE ARE 0
 NODE (LAYER,ROW,COL)   3    13    61 ELIMINATED BECAUSE ALL HYDRAULIC
 CONDUCTIVITIES TO NODE ARE 0
 NODE (LAYER,ROW,COL)   3    13    62 ELIMINATED BECAUSE ALL HYDRAULIC
 CONDUCTIVITIES TO NODE ARE 0
 NODE (LAYER,ROW,COL)   3    13    66 ELIMINATED BECAUSE ALL HYDRAULIC
 CONDUCTIVITIES TO NODE ARE 0
 NODE (LAYER,ROW,COL)   3    13    67 ELIMINATED BECAUSE ALL HYDRAULIC
 CONDUCTIVITIES TO NODE ARE 0
 NODE (LAYER,ROW,COL)   3    13    72 ELIMINATED BECAUSE ALL HYDRAULIC
 CONDUCTIVITIES TO NODE ARE 0
 NODE (LAYER,ROW,COL)   3    13    73 ELIMINATED BECAUSE ALL HYDRAULIC
 CONDUCTIVITIES TO NODE ARE 0
 NODE (LAYER,ROW,COL)   3    13    74 ELIMINATED BECAUSE ALL HYDRAULIC
 CONDUCTIVITIES TO NODE ARE 0
 NODE (LAYER,ROW,COL)   3    13    75 ELIMINATED BECAUSE ALL HYDRAULIC
 CONDUCTIVITIES TO NODE ARE 0
 NODE (LAYER,ROW,COL)   3    13    76 ELIMINATED BECAUSE ALL HYDRAULIC
 CONDUCTIVITIES TO NODE ARE 0
 NODE (LAYER,ROW,COL)   3    13    77 ELIMINATED BECAUSE ALL HYDRAULIC
 CONDUCTIVITIES TO NODE ARE 0
 NODE (LAYER,ROW,COL)   3    13    78 ELIMINATED BECAUSE ALL HYDRAULIC
 CONDUCTIVITIES TO NODE ARE 0
 NODE (LAYER,ROW,COL)   3    13    79 ELIMINATED BECAUSE ALL HYDRAULIC
 CONDUCTIVITIES TO NODE ARE 0
 NODE (LAYER,ROW,COL)   3    13    80 ELIMINATED BECAUSE ALL HYDRAULIC
 CONDUCTIVITIES TO NODE ARE 0
 NODE (LAYER,ROW,COL)   3    13    81 ELIMINATED BECAUSE ALL HYDRAULIC
 CONDUCTIVITIES TO NODE ARE 0
 NODE (LAYER,ROW,COL)   3    13    82 ELIMINATED BECAUSE ALL HYDRAULIC
 CONDUCTIVITIES TO NODE ARE 0
 NODE (LAYER,ROW,COL)   3    13    83 ELIMINATED BECAUSE ALL HYDRAULIC
 CONDUCTIVITIES TO NODE ARE 0
 NODE (LAYER,ROW,COL)   3    13    84 ELIMINATED BECAUSE ALL HYDRAULIC
 CONDUCTIVITIES TO NODE ARE 0
 NODE (LAYER,ROW,COL)   3    13    85 ELIMINATED BECAUSE ALL HYDRAULIC
 CONDUCTIVITIES TO NODE ARE 0
 NODE (LAYER,ROW,COL)   3    14    42 ELIMINATED BECAUSE ALL HYDRAULIC
 CONDUCTIVITIES TO NODE ARE 0
 NODE (LAYER,ROW,COL)   3    14    43 ELIMINATED BECAUSE ALL HYDRAULIC
 CONDUCTIVITIES TO NODE ARE 0
 NODE (LAYER,ROW,COL)   3    14    44 ELIMINATED BECAUSE ALL HYDRAULIC
 CONDUCTIVITIES TO NODE ARE 0
 NODE (LAYER,ROW,COL)   3    14    49 ELIMINATED BECAUSE ALL HYDRAULIC
 CONDUCTIVITIES TO NODE ARE 0
 NODE (LAYER,ROW,COL)   3    14    50 ELIMINATED BECAUSE ALL HYDRAULIC
 CONDUCTIVITIES TO NODE ARE 0
 NODE (LAYER,ROW,COL)   3    14    51 ELIMINATED BECAUSE ALL HYDRAULIC
 CONDUCTIVITIES TO NODE ARE 0
 NODE (LAYER,ROW,COL)   3    14    52 ELIMINATED BECAUSE ALL HYDRAULIC
 CONDUCTIVITIES TO NODE ARE 0
 NODE (LAYER,ROW,COL)   3    14    53 ELIMINATED BECAUSE ALL HYDRAULIC
 CONDUCTIVITIES TO NODE ARE 0
 NODE (LAYER,ROW,COL)   3    14    54 ELIMINATED BECAUSE ALL HYDRAULIC
 CONDUCTIVITIES TO NODE ARE 0
 NODE (LAYER,ROW,COL)   3    14    55 ELIMINATED BECAUSE ALL HYDRAULIC
 CONDUCTIVITIES TO NODE ARE 0
 NODE (LAYER,ROW,COL)   3    14    56 ELIMINATED BECAUSE ALL HYDRAULIC
 CONDUCTIVITIES TO NODE ARE 0
 NODE (LAYER,ROW,COL)   3    14    57 ELIMINATED BECAUSE ALL HYDRAULIC
 CONDUCTIVITIES TO NODE ARE 0
 NODE (LAYER,ROW,COL)   3    14    58 ELIMINATED BECAUSE ALL HYDRAULIC
 CONDUCTIVITIES TO NODE ARE 0
 NODE (LAYER,ROW,COL)   3    14    59 ELIMINATED BECAUSE ALL HYDRAULIC
 CONDUCTIVITIES TO NODE ARE 0
 NODE (LAYER,ROW,COL)   3    14    60 ELIMINATED BECAUSE ALL HYDRAULIC
 CONDUCTIVITIES TO NODE ARE 0
 NODE (LAYER,ROW,COL)   3    14    61 ELIMINATED BECAUSE ALL HYDRAULIC
 CONDUCTIVITIES TO NODE ARE 0
 NODE (LAYER,ROW,COL)   3    14    62 ELIMINATED BECAUSE ALL HYDRAULIC
 CONDUCTIVITIES TO NODE ARE 0
 NODE (LAYER,ROW,COL)   3    14    67 ELIMINATED BECAUSE ALL HYDRAULIC
 CONDUCTIVITIES TO NODE ARE 0
 NODE (LAYER,ROW,COL)   3    14    72 ELIMINATED BECAUSE ALL HYDRAULIC
 CONDUCTIVITIES TO NODE ARE 0
 NODE (LAYER,ROW,COL)   3    14    73 ELIMINATED BECAUSE ALL HYDRAULIC
 CONDUCTIVITIES TO NODE ARE 0
 NODE (LAYER,ROW,COL)   3    14    74 ELIMINATED BECAUSE ALL HYDRAULIC
 CONDUCTIVITIES TO NODE ARE 0
 NODE (LAYER,ROW,COL)   3    14    75 ELIMINATED BECAUSE ALL HYDRAULIC
 CONDUCTIVITIES TO NODE ARE 0
 NODE (LAYER,ROW,COL)   3    14    76 ELIMINATED BECAUSE ALL HYDRAULIC
 CONDUCTIVITIES TO NODE ARE 0
 NODE (LAYER,ROW,COL)   3    14    77 ELIMINATED BECAUSE ALL HYDRAULIC
 CONDUCTIVITIES TO NODE ARE 0
 NODE (LAYER,ROW,COL)   3    14    78 ELIMINATED BECAUSE ALL HYDRAULIC
 CONDUCTIVITIES TO NODE ARE 0
 NODE (LAYER,ROW,COL)   3    14    79 ELIMINATED BECAUSE ALL HYDRAULIC
 CONDUCTIVITIES TO NODE ARE 0
 NODE (LAYER,ROW,COL)   3    14    80 ELIMINATED BECAUSE ALL HYDRAULIC
 CONDUCTIVITIES TO NODE ARE 0
 NODE (LAYER,ROW,COL)   3    14    81 ELIMINATED BECAUSE ALL HYDRAULIC
 CONDUCTIVITIES TO NODE ARE 0
 NODE (LAYER,ROW,COL)   3    14    82 ELIMINATED BECAUSE ALL HYDRAULIC
 CONDUCTIVITIES TO NODE ARE 0
 NODE (LAYER,ROW,COL)   3    14    83 ELIMINATED BECAUSE ALL HYDRAULIC
 CONDUCTIVITIES TO NODE ARE 0
 NODE (LAYER,ROW,COL)   3    14    84 ELIMINATED BECAUSE ALL HYDRAULIC
 CONDUCTIVITIES TO NODE ARE 0
 NODE (LAYER,ROW,COL)   3    14    85 ELIMINATED BECAUSE ALL HYDRAULIC
 CONDUCTIVITIES TO NODE ARE 0
 NODE (LAYER,ROW,COL)   3    14    86 ELIMINATED BECAUSE ALL HYDRAULIC
 CONDUCTIVITIES TO NODE ARE 0
 NODE (LAYER,ROW,COL)   3    14    87 ELIMINATED BECAUSE ALL HYDRAULIC
 CONDUCTIVITIES TO NODE ARE 0
 NODE (LAYER,ROW,COL)   3    14    88 ELIMINATED BECAUSE ALL HYDRAULIC
 CONDUCTIVITIES TO NODE ARE 0
 NODE (LAYER,ROW,COL)   3    15    43 ELIMINATED BECAUSE ALL HYDRAULIC
 CONDUCTIVITIES TO NODE ARE 0
 NODE (LAYER,ROW,COL)   3    15    44 ELIMINATED BECAUSE ALL HYDRAULIC
 CONDUCTIVITIES TO NODE ARE 0
 NODE (LAYER,ROW,COL)   3    15    45 ELIMINATED BECAUSE ALL HYDRAULIC
 CONDUCTIVITIES TO NODE ARE 0
 NODE (LAYER,ROW,COL)   3    15    49 ELIMINATED BECAUSE ALL HYDRAULIC
 CONDUCTIVITIES TO NODE ARE 0
 NODE (LAYER,ROW,COL)   3    15    50 ELIMINATED BECAUSE ALL HYDRAULIC
 CONDUCTIVITIES TO NODE ARE 0
 NODE (LAYER,ROW,COL)   3    15    51 ELIMINATED BECAUSE ALL HYDRAULIC
 CONDUCTIVITIES TO NODE ARE 0
 NODE (LAYER,ROW,COL)   3    15    52 ELIMINATED BECAUSE ALL HYDRAULIC
 CONDUCTIVITIES TO NODE ARE 0
 NODE (LAYER,ROW,COL)   3    15    53 ELIMINATED BECAUSE ALL HYDRAULIC
 CONDUCTIVITIES TO NODE ARE 0
 NODE (LAYER,ROW,COL)   3    15    54 ELIMINATED BECAUSE ALL HYDRAULIC
 CONDUCTIVITIES TO NODE ARE 0
 NODE (LAYER,ROW,COL)   3    15    55 ELIMINATED BECAUSE ALL HYDRAULIC
 CONDUCTIVITIES TO NODE ARE 0
 NODE (LAYER,ROW,COL)   3    15    56 ELIMINATED BECAUSE ALL HYDRAULIC
 CONDUCTIVITIES TO NODE ARE 0
 NODE (LAYER,ROW,COL)   3    15    57 ELIMINATED BECAUSE ALL HYDRAULIC
 CONDUCTIVITIES TO NODE ARE 0
 NODE (LAYER,ROW,COL)   3    15    58 ELIMINATED BECAUSE ALL HYDRAULIC
 CONDUCTIVITIES TO NODE ARE 0
 NODE (LAYER,ROW,COL)   3    15    59 ELIMINATED BECAUSE ALL HYDRAULIC
 CONDUCTIVITIES TO NODE ARE 0
 NODE (LAYER,ROW,COL)   3    15    60 ELIMINATED BECAUSE ALL HYDRAULIC
 CONDUCTIVITIES TO NODE ARE 0
 NODE (LAYER,ROW,COL)   3    15    61 ELIMINATED BECAUSE ALL HYDRAULIC
 CONDUCTIVITIES TO NODE ARE 0
 NODE (LAYER,ROW,COL)   3    15    62 ELIMINATED BECAUSE ALL HYDRAULIC
 CONDUCTIVITIES TO NODE ARE 0
 NODE (LAYER,ROW,COL)   3    15    71 ELIMINATED BECAUSE ALL HYDRAULIC
 CONDUCTIVITIES TO NODE ARE 0
 NODE (LAYER,ROW,COL)   3    15    72 ELIMINATED BECAUSE ALL HYDRAULIC
 CONDUCTIVITIES TO NODE ARE 0
 NODE (LAYER,ROW,COL)   3    15    73 ELIMINATED BECAUSE ALL HYDRAULIC
 CONDUCTIVITIES TO NODE ARE 0
 NODE (LAYER,ROW,COL)   3    15    74 ELIMINATED BECAUSE ALL HYDRAULIC
 CONDUCTIVITIES TO NODE ARE 0
 NODE (LAYER,ROW,COL)   3    15    75 ELIMINATED BECAUSE ALL HYDRAULIC
 CONDUCTIVITIES TO NODE ARE 0
 NODE (LAYER,ROW,COL)   3    15    76 ELIMINATED BECAUSE ALL HYDRAULIC
 CONDUCTIVITIES TO NODE ARE 0
 NODE (LAYER,ROW,COL)   3    15    77 ELIMINATED BECAUSE ALL HYDRAULIC
 CONDUCTIVITIES TO NODE ARE 0
 NODE (LAYER,ROW,COL)   3    15    78 ELIMINATED BECAUSE ALL HYDRAULIC
 CONDUCTIVITIES TO NODE ARE 0
 NODE (LAYER,ROW,COL)   3    15    79 ELIMINATED BECAUSE ALL HYDRAULIC
 CONDUCTIVITIES TO NODE ARE 0
 NODE (LAYER,ROW,COL)   3    15    80 ELIMINATED BECAUSE ALL HYDRAULIC
 CONDUCTIVITIES TO NODE ARE 0
 NODE (LAYER,ROW,COL)   3    15    81 ELIMINATED BECAUSE ALL HYDRAULIC
 CONDUCTIVITIES TO NODE ARE 0
 NODE (LAYER,ROW,COL)   3    15    82 ELIMINATED BECAUSE ALL HYDRAULIC
 CONDUCTIVITIES TO NODE ARE 0
 NODE (LAYER,ROW,COL)   3    15    83 ELIMINATED BECAUSE ALL HYDRAULIC
 CONDUCTIVITIES TO NODE ARE 0
 NODE (LAYER,ROW,COL)   3    15    84 ELIMINATED BECAUSE ALL HYDRAULIC
 CONDUCTIVITIES TO NODE ARE 0
 NODE (LAYER,ROW,COL)   3    15    85 ELIMINATED BECAUSE ALL HYDRAULIC
 CONDUCTIVITIES TO NODE ARE 0
 NODE (LAYER,ROW,COL)   3    15    86 ELIMINATED BECAUSE ALL HYDRAULIC
 CONDUCTIVITIES TO NODE ARE 0
 NODE (LAYER,ROW,COL)   3    15    87 ELIMINATED BECAUSE ALL HYDRAULIC
 CONDUCTIVITIES TO NODE ARE 0
 NODE (LAYER,ROW,COL)   3    15    88 ELIMINATED BECAUSE ALL HYDRAULIC
 CONDUCTIVITIES TO NODE ARE 0
 NODE (LAYER,ROW,COL)   3    15    89 ELIMINATED BECAUSE ALL HYDRAULIC
 CONDUCTIVITIES TO NODE ARE 0
 NODE (LAYER,ROW,COL)   3    16    43 ELIMINATED BECAUSE ALL HYDRAULIC
 CONDUCTIVITIES TO NODE ARE 0
 NODE (LAYER,ROW,COL)   3    16    44 ELIMINATED BECAUSE ALL HYDRAULIC
 CONDUCTIVITIES TO NODE ARE 0
 NODE (LAYER,ROW,COL)   3    16    45 ELIMINATED BECAUSE ALL HYDRAULIC
 CONDUCTIVITIES TO NODE ARE 0
 NODE (LAYER,ROW,COL)   3    16    49 ELIMINATED BECAUSE ALL HYDRAULIC
 CONDUCTIVITIES TO NODE ARE 0
 NODE (LAYER,ROW,COL)   3    16    50 ELIMINATED BECAUSE ALL HYDRAULIC
 CONDUCTIVITIES TO NODE ARE 0
 NODE (LAYER,ROW,COL)   3    16    51 ELIMINATED BECAUSE ALL HYDRAULIC
 CONDUCTIVITIES TO NODE ARE 0
 NODE (LAYER,ROW,COL)   3    16    52 ELIMINATED BECAUSE ALL HYDRAULIC
 CONDUCTIVITIES TO NODE ARE 0
 NODE (LAYER,ROW,COL)   3    16    53 ELIMINATED BECAUSE ALL HYDRAULIC
 CONDUCTIVITIES TO NODE ARE 0
 NODE (LAYER,ROW,COL)   3    16    54 ELIMINATED BECAUSE ALL HYDRAULIC
 CONDUCTIVITIES TO NODE ARE 0
 NODE (LAYER,ROW,COL)   3    16    55 ELIMINATED BECAUSE ALL HYDRAULIC
 CONDUCTIVITIES TO NODE ARE 0
 NODE (LAYER,ROW,COL)   3    16    56 ELIMINATED BECAUSE ALL HYDRAULIC
 CONDUCTIVITIES TO NODE ARE 0
 NODE (LAYER,ROW,COL)   3    16    57 ELIMINATED BECAUSE ALL HYDRAULIC
 CONDUCTIVITIES TO NODE ARE 0
 NODE (LAYER,ROW,COL)   3    16    58 ELIMINATED BECAUSE ALL HYDRAULIC
 CONDUCTIVITIES TO NODE ARE 0
 NODE (LAYER,ROW,COL)   3    16    59 ELIMINATED BECAUSE ALL HYDRAULIC
 CONDUCTIVITIES TO NODE ARE 0
 NODE (LAYER,ROW,COL)   3    16    60 ELIMINATED BECAUSE ALL HYDRAULIC
 CONDUCTIVITIES TO NODE ARE 0
 NODE (LAYER,ROW,COL)   3    16    61 ELIMINATED BECAUSE ALL HYDRAULIC
 CONDUCTIVITIES TO NODE ARE 0
 NODE (LAYER,ROW,COL)   3    16    62 ELIMINATED BECAUSE ALL HYDRAULIC
 CONDUCTIVITIES TO NODE ARE 0
 NODE (LAYER,ROW,COL)   3    16    63 ELIMINATED BECAUSE ALL HYDRAULIC
 CONDUCTIVITIES TO NODE ARE 0
 NODE (LAYER,ROW,COL)   3    16    71 ELIMINATED BECAUSE ALL HYDRAULIC
 CONDUCTIVITIES TO NODE ARE 0
 NODE (LAYER,ROW,COL)   3    16    72 ELIMINATED BECAUSE ALL HYDRAULIC
 CONDUCTIVITIES TO NODE ARE 0
 NODE (LAYER,ROW,COL)   3    16    73 ELIMINATED BECAUSE ALL HYDRAULIC
 CONDUCTIVITIES TO NODE ARE 0
 NODE (LAYER,ROW,COL)   3    16    79 ELIMINATED BECAUSE ALL HYDRAULIC
 CONDUCTIVITIES TO NODE ARE 0
 NODE (LAYER,ROW,COL)   3    16    80 ELIMINATED BECAUSE ALL HYDRAULIC
 CONDUCTIVITIES TO NODE ARE 0
 NODE (LAYER,ROW,COL)   3    16    81 ELIMINATED BECAUSE ALL HYDRAULIC
 CONDUCTIVITIES TO NODE ARE 0
 NODE (LAYER,ROW,COL)   3    16    82 ELIMINATED BECAUSE ALL HYDRAULIC
 CONDUCTIVITIES TO NODE ARE 0
 NODE (LAYER,ROW,COL)   3    16    83 ELIMINATED BECAUSE ALL HYDRAULIC
 CONDUCTIVITIES TO NODE ARE 0
 NODE (LAYER,ROW,COL)   3    16    84 ELIMINATED BECAUSE ALL HYDRAULIC
 CONDUCTIVITIES TO NODE ARE 0
 NODE (LAYER,ROW,COL)   3    16    85 ELIMINATED BECAUSE ALL HYDRAULIC
 CONDUCTIVITIES TO NODE ARE 0
 NODE (LAYER,ROW,COL)   3    16    86 ELIMINATED BECAUSE ALL HYDRAULIC
 CONDUCTIVITIES TO NODE ARE 0
 NODE (LAYER,ROW,COL)   3    16    87 ELIMINATED BECAUSE ALL HYDRAULIC
 CONDUCTIVITIES TO NODE ARE 0
 NODE (LAYER,ROW,COL)   3    16    88 ELIMINATED BECAUSE ALL HYDRAULIC
 CONDUCTIVITIES TO NODE ARE 0
 NODE (LAYER,ROW,COL)   3    16    89 ELIMINATED BECAUSE ALL HYDRAULIC
 CONDUCTIVITIES TO NODE ARE 0
 NODE (LAYER,ROW,COL)   3    16    90 ELIMINATED BECAUSE ALL HYDRAULIC
 CONDUCTIVITIES TO NODE ARE 0
 NODE (LAYER,ROW,COL)   3    17    43 ELIMINATED BECAUSE ALL HYDRAULIC
 CONDUCTIVITIES TO NODE ARE 0
 NODE (LAYER,ROW,COL)   3    17    44 ELIMINATED BECAUSE ALL HYDRAULIC
 CONDUCTIVITIES TO NODE ARE 0
 NODE (LAYER,ROW,COL)   3    17    45 ELIMINATED BECAUSE ALL HYDRAULIC
 CONDUCTIVITIES TO NODE ARE 0
 NODE (LAYER,ROW,COL)   3    17    49 ELIMINATED BECAUSE ALL HYDRAULIC
 CONDUCTIVITIES TO NODE ARE 0
 NODE (LAYER,ROW,COL)   3    17    50 ELIMINATED BECAUSE ALL HYDRAULIC
 CONDUCTIVITIES TO NODE ARE 0
 NODE (LAYER,ROW,COL)   3    17    51 ELIMINATED BECAUSE ALL HYDRAULIC
 CONDUCTIVITIES TO NODE ARE 0
 NODE (LAYER,ROW,COL)   3    17    52 ELIMINATED BECAUSE ALL HYDRAULIC
 CONDUCTIVITIES TO NODE ARE 0
 NODE (LAYER,ROW,COL)   3    17    53 ELIMINATED BECAUSE ALL HYDRAULIC
 CONDUCTIVITIES TO NODE ARE 0
 NODE (LAYER,ROW,COL)   3    17    54 ELIMINATED BECAUSE ALL HYDRAULIC
 CONDUCTIVITIES TO NODE ARE 0
 NODE (LAYER,ROW,COL)   3    17    55 ELIMINATED BECAUSE ALL HYDRAULIC
 CONDUCTIVITIES TO NODE ARE 0
 NODE (LAYER,ROW,COL)   3    17    56 ELIMINATED BECAUSE ALL HYDRAULIC
 CONDUCTIVITIES TO NODE ARE 0
 NODE (LAYER,ROW,COL)   3    17    57 ELIMINATED BECAUSE ALL HYDRAULIC
 CONDUCTIVITIES TO NODE ARE 0
 NODE (LAYER,ROW,COL)   3    17    58 ELIMINATED BECAUSE ALL HYDRAULIC
 CONDUCTIVITIES TO NODE ARE 0
 NODE (LAYER,ROW,COL)   3    17    59 ELIMINATED BECAUSE ALL HYDRAULIC
 CONDUCTIVITIES TO NODE ARE 0
 NODE (LAYER,ROW,COL)   3    17    60 ELIMINATED BECAUSE ALL HYDRAULIC
 CONDUCTIVITIES TO NODE ARE 0
 NODE (LAYER,ROW,COL)   3    17    61 ELIMINATED BECAUSE ALL HYDRAULIC
 CONDUCTIVITIES TO NODE ARE 0
 NODE (LAYER,ROW,COL)   3    17    62 ELIMINATED BECAUSE ALL HYDRAULIC
 CONDUCTIVITIES TO NODE ARE 0
 NODE (LAYER,ROW,COL)   3    17    63 ELIMINATED BECAUSE ALL HYDRAULIC
 CONDUCTIVITIES TO NODE ARE 0
 NODE (LAYER,ROW,COL)   3    17    64 ELIMINATED BECAUSE ALL HYDRAULIC
 CONDUCTIVITIES TO NODE ARE 0
 NODE (LAYER,ROW,COL)   3    17    70 ELIMINATED BECAUSE ALL HYDRAULIC
 CONDUCTIVITIES TO NODE ARE 0
 NODE (LAYER,ROW,COL)   3    17    71 ELIMINATED BECAUSE ALL HYDRAULIC
 CONDUCTIVITIES TO NODE ARE 0
 NODE (LAYER,ROW,COL)   3    17    72 ELIMINATED BECAUSE ALL HYDRAULIC
 CONDUCTIVITIES TO NODE ARE 0
 NODE (LAYER,ROW,COL)   3    17    73 ELIMINATED BECAUSE ALL HYDRAULIC
 CONDUCTIVITIES TO NODE ARE 0
 NODE (LAYER,ROW,COL)   3    17    80 ELIMINATED BECAUSE ALL HYDRAULIC
 CONDUCTIVITIES TO NODE ARE 0
 NODE (LAYER,ROW,COL)   3    17    81 ELIMINATED BECAUSE ALL HYDRAULIC
 CONDUCTIVITIES TO NODE ARE 0
 NODE (LAYER,ROW,COL)   3    17    82 ELIMINATED BECAUSE ALL HYDRAULIC
 CONDUCTIVITIES TO NODE ARE 0
 NODE (LAYER,ROW,COL)   3    17    83 ELIMINATED BECAUSE ALL HYDRAULIC
 CONDUCTIVITIES TO NODE ARE 0
 NODE (LAYER,ROW,COL)   3    17    84 ELIMINATED BECAUSE ALL HYDRAULIC
 CONDUCTIVITIES TO NODE ARE 0
 NODE (LAYER,ROW,COL)   3    17    85 ELIMINATED BECAUSE ALL HYDRAULIC
 CONDUCTIVITIES TO NODE ARE 0
 NODE (LAYER,ROW,COL)   3    17    86 ELIMINATED BECAUSE ALL HYDRAULIC
 CONDUCTIVITIES TO NODE ARE 0
 NODE (LAYER,ROW,COL)   3    17    87 ELIMINATED BECAUSE ALL HYDRAULIC
 CONDUCTIVITIES TO NODE ARE 0
 NODE (LAYER,ROW,COL)   3    17    88 ELIMINATED BECAUSE ALL HYDRAULIC
 CONDUCTIVITIES TO NODE ARE 0
 NODE (LAYER,ROW,COL)   3    17    89 ELIMINATED BECAUSE ALL HYDRAULIC
 CONDUCTIVITIES TO NODE ARE 0
 NODE (LAYER,ROW,COL)   3    17    90 ELIMINATED BECAUSE ALL HYDRAULIC
 CONDUCTIVITIES TO NODE ARE 0
 NODE (LAYER,ROW,COL)   3    18     8 ELIMINATED BECAUSE ALL HYDRAULIC
 CONDUCTIVITIES TO NODE ARE 0
 NODE (LAYER,ROW,COL)   3    18    10 ELIMINATED BECAUSE ALL HYDRAULIC
 CONDUCTIVITIES TO NODE ARE 0
 NODE (LAYER,ROW,COL)   3    18    11 ELIMINATED BECAUSE ALL HYDRAULIC
 CONDUCTIVITIES TO NODE ARE 0
 NODE (LAYER,ROW,COL)   3    18    41 ELIMINATED BECAUSE ALL HYDRAULIC
 CONDUCTIVITIES TO NODE ARE 0
 NODE (LAYER,ROW,COL)   3    18    42 ELIMINATED BECAUSE ALL HYDRAULIC
 CONDUCTIVITIES TO NODE ARE 0
 NODE (LAYER,ROW,COL)   3    18    43 ELIMINATED BECAUSE ALL HYDRAULIC
 CONDUCTIVITIES TO NODE ARE 0
 NODE (LAYER,ROW,COL)   3    18    44 ELIMINATED BECAUSE ALL HYDRAULIC
 CONDUCTIVITIES TO NODE ARE 0
 NODE (LAYER,ROW,COL)   3    18    45 ELIMINATED BECAUSE ALL HYDRAULIC
 CONDUCTIVITIES TO NODE ARE 0
 NODE (LAYER,ROW,COL)   3    18    50 ELIMINATED BECAUSE ALL HYDRAULIC
 CONDUCTIVITIES TO NODE ARE 0
 NODE (LAYER,ROW,COL)   3    18    51 ELIMINATED BECAUSE ALL HYDRAULIC
 CONDUCTIVITIES TO NODE ARE 0
 NODE (LAYER,ROW,COL)   3    18    52 ELIMINATED BECAUSE ALL HYDRAULIC
 CONDUCTIVITIES TO NODE ARE 0
 NODE (LAYER,ROW,COL)   3    18    53 ELIMINATED BECAUSE ALL HYDRAULIC
 CONDUCTIVITIES TO NODE ARE 0
 NODE (LAYER,ROW,COL)   3    18    54 ELIMINATED BECAUSE ALL HYDRAULIC
 CONDUCTIVITIES TO NODE ARE 0
 NODE (LAYER,ROW,COL)   3    18    58 ELIMINATED BECAUSE ALL HYDRAULIC
 CONDUCTIVITIES TO NODE ARE 0
 NODE (LAYER,ROW,COL)   3    18    59 ELIMINATED BECAUSE ALL HYDRAULIC
 CONDUCTIVITIES TO NODE ARE 0
 NODE (LAYER,ROW,COL)   3    18    60 ELIMINATED BECAUSE ALL HYDRAULIC
 CONDUCTIVITIES TO NODE ARE 0
 NODE (LAYER,ROW,COL)   3    18    61 ELIMINATED BECAUSE ALL HYDRAULIC
 CONDUCTIVITIES TO NODE ARE 0
 NODE (LAYER,ROW,COL)   3    18    62 ELIMINATED BECAUSE ALL HYDRAULIC
 CONDUCTIVITIES TO NODE ARE 0
 NODE (LAYER,ROW,COL)   3    18    63 ELIMINATED BECAUSE ALL HYDRAULIC
 CONDUCTIVITIES TO NODE ARE 0
 NODE (LAYER,ROW,COL)   3    18    64 ELIMINATED BECAUSE ALL HYDRAULIC
 CONDUCTIVITIES TO NODE ARE 0
 NODE (LAYER,ROW,COL)   3    18    65 ELIMINATED BECAUSE ALL HYDRAULIC
 CONDUCTIVITIES TO NODE ARE 0
 NODE (LAYER,ROW,COL)   3    18    71 ELIMINATED BECAUSE ALL HYDRAULIC
 CONDUCTIVITIES TO NODE ARE 0
 NODE (LAYER,ROW,COL)   3    18    72 ELIMINATED BECAUSE ALL HYDRAULIC
 CONDUCTIVITIES TO NODE ARE 0
 NODE (LAYER,ROW,COL)   3    18    81 ELIMINATED BECAUSE ALL HYDRAULIC
 CONDUCTIVITIES TO NODE ARE 0
 NODE (LAYER,ROW,COL)   3    18    82 ELIMINATED BECAUSE ALL HYDRAULIC
 CONDUCTIVITIES TO NODE ARE 0
 NODE (LAYER,ROW,COL)   3    18    83 ELIMINATED BECAUSE ALL HYDRAULIC
 CONDUCTIVITIES TO NODE ARE 0
 NODE (LAYER,ROW,COL)   3    18    84 ELIMINATED BECAUSE ALL HYDRAULIC
 CONDUCTIVITIES TO NODE ARE 0
 NODE (LAYER,ROW,COL)   3    18    85 ELIMINATED BECAUSE ALL HYDRAULIC
 CONDUCTIVITIES TO NODE ARE 0
 NODE (LAYER,ROW,COL)   3    18    86 ELIMINATED BECAUSE ALL HYDRAULIC
 CONDUCTIVITIES TO NODE ARE 0
 NODE (LAYER,ROW,COL)   3    18    87 ELIMINATED BECAUSE ALL HYDRAULIC
 CONDUCTIVITIES TO NODE ARE 0
 NODE (LAYER,ROW,COL)   3    18    88 ELIMINATED BECAUSE ALL HYDRAULIC
 CONDUCTIVITIES TO NODE ARE 0
 NODE (LAYER,ROW,COL)   3    18    89 ELIMINATED BECAUSE ALL HYDRAULIC
 CONDUCTIVITIES TO NODE ARE 0
 NODE (LAYER,ROW,COL)   3    18    90 ELIMINATED BECAUSE ALL HYDRAULIC
 CONDUCTIVITIES TO NODE ARE 0
 NODE (LAYER,ROW,COL)   3    19     3 ELIMINATED BECAUSE ALL HYDRAULIC
 CONDUCTIVITIES TO NODE ARE 0
 NODE (LAYER,ROW,COL)   3    19     4 ELIMINATED BECAUSE ALL HYDRAULIC
 CONDUCTIVITIES TO NODE ARE 0
 NODE (LAYER,ROW,COL)   3    19     5 ELIMINATED BECAUSE ALL HYDRAULIC
 CONDUCTIVITIES TO NODE ARE 0
 NODE (LAYER,ROW,COL)   3    19     7 ELIMINATED BECAUSE ALL HYDRAULIC
 CONDUCTIVITIES TO NODE ARE 0
 NODE (LAYER,ROW,COL)   3    19     8 ELIMINATED BECAUSE ALL HYDRAULIC
 CONDUCTIVITIES TO NODE ARE 0
 NODE (LAYER,ROW,COL)   3    19     9 ELIMINATED BECAUSE ALL HYDRAULIC
 CONDUCTIVITIES TO NODE ARE 0
 NODE (LAYER,ROW,COL)   3    19    10 ELIMINATED BECAUSE ALL HYDRAULIC
 CONDUCTIVITIES TO NODE ARE 0
 NODE (LAYER,ROW,COL)   3    19    11 ELIMINATED BECAUSE ALL HYDRAULIC
 CONDUCTIVITIES TO NODE ARE 0
 NODE (LAYER,ROW,COL)   3    19    12 ELIMINATED BECAUSE ALL HYDRAULIC
 CONDUCTIVITIES TO NODE ARE 0
 NODE (LAYER,ROW,COL)   3    19    13 ELIMINATED BECAUSE ALL HYDRAULIC
 CONDUCTIVITIES TO NODE ARE 0
 NODE (LAYER,ROW,COL)   3    19    40 ELIMINATED BECAUSE ALL HYDRAULIC
 CONDUCTIVITIES TO NODE ARE 0
 NODE (LAYER,ROW,COL)   3    19    41 ELIMINATED BECAUSE ALL HYDRAULIC
 CONDUCTIVITIES TO NODE ARE 0
 NODE (LAYER,ROW,COL)   3    19    42 ELIMINATED BECAUSE ALL HYDRAULIC
 CONDUCTIVITIES TO NODE ARE 0
 NODE (LAYER,ROW,COL)   3    19    43 ELIMINATED BECAUSE ALL HYDRAULIC
 CONDUCTIVITIES TO NODE ARE 0
 NODE (LAYER,ROW,COL)   3    19    44 ELIMINATED BECAUSE ALL HYDRAULIC
 CONDUCTIVITIES TO NODE ARE 0
 NODE (LAYER,ROW,COL)   3    19    45 ELIMINATED BECAUSE ALL HYDRAULIC
 CONDUCTIVITIES TO NODE ARE 0
 NODE (LAYER,ROW,COL)   3    19    50 ELIMINATED BECAUSE ALL HYDRAULIC
 CONDUCTIVITIES TO NODE ARE 0
 NODE (LAYER,ROW,COL)   3    19    51 ELIMINATED BECAUSE ALL HYDRAULIC
 CONDUCTIVITIES TO NODE ARE 0
 NODE (LAYER,ROW,COL)   3    19    52 ELIMINATED BECAUSE ALL HYDRAULIC
 CONDUCTIVITIES TO NODE ARE 0
 NODE (LAYER,ROW,COL)   3    19    53 ELIMINATED BECAUSE ALL HYDRAULIC
 CONDUCTIVITIES TO NODE ARE 0
 NODE (LAYER,ROW,COL)   3    19    58 ELIMINATED BECAUSE ALL HYDRAULIC
 CONDUCTIVITIES TO NODE ARE 0
 NODE (LAYER,ROW,COL)   3    19    59 ELIMINATED BECAUSE ALL HYDRAULIC
 CONDUCTIVITIES TO NODE ARE 0
 NODE (LAYER,ROW,COL)   3    19    60 ELIMINATED BECAUSE ALL HYDRAULIC
 CONDUCTIVITIES TO NODE ARE 0
 NODE (LAYER,ROW,COL)   3    19    61 ELIMINATED BECAUSE ALL HYDRAULIC
 CONDUCTIVITIES TO NODE ARE 0
 NODE (LAYER,ROW,COL)   3    19    62 ELIMINATED BECAUSE ALL HYDRAULIC
 CONDUCTIVITIES TO NODE ARE 0
 NODE (LAYER,ROW,COL)   3    19    63 ELIMINATED BECAUSE ALL HYDRAULIC
 CONDUCTIVITIES TO NODE ARE 0
 NODE (LAYER,ROW,COL)   3    19    64 ELIMINATED BECAUSE ALL HYDRAULIC
 CONDUCTIVITIES TO NODE ARE 0
 NODE (LAYER,ROW,COL)   3    19    65 ELIMINATED BECAUSE ALL HYDRAULIC
 CONDUCTIVITIES TO NODE ARE 0
 NODE (LAYER,ROW,COL)   3    19    66 ELIMINATED BECAUSE ALL HYDRAULIC
 CONDUCTIVITIES TO NODE ARE 0
 NODE (LAYER,ROW,COL)   3    19    71 ELIMINATED BECAUSE ALL HYDRAULIC
 CONDUCTIVITIES TO NODE ARE 0
 NODE (LAYER,ROW,COL)   3    19    72 ELIMINATED BECAUSE ALL HYDRAULIC
 CONDUCTIVITIES TO NODE ARE 0
 NODE (LAYER,ROW,COL)   3    19    85 ELIMINATED BECAUSE ALL HYDRAULIC
 CONDUCTIVITIES TO NODE ARE 0
 NODE (LAYER,ROW,COL)   3    19    86 ELIMINATED BECAUSE ALL HYDRAULIC
 CONDUCTIVITIES TO NODE ARE 0
 NODE (LAYER,ROW,COL)   3    19    87 ELIMINATED BECAUSE ALL HYDRAULIC
 CONDUCTIVITIES TO NODE ARE 0
 NODE (LAYER,ROW,COL)   3    19    88 ELIMINATED BECAUSE ALL HYDRAULIC
 CONDUCTIVITIES TO NODE ARE 0
 NODE (LAYER,ROW,COL)   3    19    89 ELIMINATED BECAUSE ALL HYDRAULIC
 CONDUCTIVITIES TO NODE ARE 0
 NODE (LAYER,ROW,COL)   3    19    90 ELIMINATED BECAUSE ALL HYDRAULIC
 CONDUCTIVITIES TO NODE ARE 0
 NODE (LAYER,ROW,COL)   3    19    91 ELIMINATED BECAUSE ALL HYDRAULIC
 CONDUCTIVITIES TO NODE ARE 0
 NODE (LAYER,ROW,COL)   3    20     3 ELIMINATED BECAUSE ALL HYDRAULIC
 CONDUCTIVITIES TO NODE ARE 0
 NODE (LAYER,ROW,COL)   3    20     4 ELIMINATED BECAUSE ALL HYDRAULIC
 CONDUCTIVITIES TO NODE ARE 0
 NODE (LAYER,ROW,COL)   3    20     5 ELIMINATED BECAUSE ALL HYDRAULIC
 CONDUCTIVITIES TO NODE ARE 0
 NODE (LAYER,ROW,COL)   3    20     6 ELIMINATED BECAUSE ALL HYDRAULIC
 CONDUCTIVITIES TO NODE ARE 0
 NODE (LAYER,ROW,COL)   3    20     7 ELIMINATED BECAUSE ALL HYDRAULIC
 CONDUCTIVITIES TO NODE ARE 0
 NODE (LAYER,ROW,COL)   3    20     8 ELIMINATED BECAUSE ALL HYDRAULIC
 CONDUCTIVITIES TO NODE ARE 0
 NODE (LAYER,ROW,COL)   3    20     9 ELIMINATED BECAUSE ALL HYDRAULIC
 CONDUCTIVITIES TO NODE ARE 0
 NODE (LAYER,ROW,COL)   3    20    10 ELIMINATED BECAUSE ALL HYDRAULIC
 CONDUCTIVITIES TO NODE ARE 0
 NODE (LAYER,ROW,COL)   3    20    11 ELIMINATED BECAUSE ALL HYDRAULIC
 CONDUCTIVITIES TO NODE ARE 0
 NODE (LAYER,ROW,COL)   3    20    12 ELIMINATED BECAUSE ALL HYDRAULIC
 CONDUCTIVITIES TO NODE ARE 0
 NODE (LAYER,ROW,COL)   3    20    13 ELIMINATED BECAUSE ALL HYDRAULIC
 CONDUCTIVITIES TO NODE ARE 0
 NODE (LAYER,ROW,COL)   3    20    14 ELIMINATED BECAUSE ALL HYDRAULIC
 CONDUCTIVITIES TO NODE ARE 0
 NODE (LAYER,ROW,COL)   3    20    15 ELIMINATED BECAUSE ALL HYDRAULIC
 CONDUCTIVITIES TO NODE ARE 0
 NODE (LAYER,ROW,COL)   3    20    16 ELIMINATED BECAUSE ALL HYDRAULIC
 CONDUCTIVITIES TO NODE ARE 0
 NODE (LAYER,ROW,COL)   3    20    17 ELIMINATED BECAUSE ALL HYDRAULIC
 CONDUCTIVITIES TO NODE ARE 0
 NODE (LAYER,ROW,COL)   3    20    39 ELIMINATED BECAUSE ALL HYDRAULIC
 CONDUCTIVITIES TO NODE ARE 0
 NODE (LAYER,ROW,COL)   3    20    40 ELIMINATED BECAUSE ALL HYDRAULIC
 CONDUCTIVITIES TO NODE ARE 0
 NODE (LAYER,ROW,COL)   3    20    41 ELIMINATED BECAUSE ALL HYDRAULIC
 CONDUCTIVITIES TO NODE ARE 0
 NODE (LAYER,ROW,COL)   3    20    42 ELIMINATED BECAUSE ALL HYDRAULIC
 CONDUCTIVITIES TO NODE ARE 0
 NODE (LAYER,ROW,COL)   3    20    43 ELIMINATED BECAUSE ALL HYDRAULIC
 CONDUCTIVITIES TO NODE ARE 0
 NODE (LAYER,ROW,COL)   3    20    44 ELIMINATED BECAUSE ALL HYDRAULIC
 CONDUCTIVITIES TO NODE ARE 0
 NODE (LAYER,ROW,COL)   3    20    45 ELIMINATED BECAUSE ALL HYDRAULIC
 CONDUCTIVITIES TO NODE ARE 0
 NODE (LAYER,ROW,COL)   3    20    46 ELIMINATED BECAUSE ALL HYDRAULIC
 CONDUCTIVITIES TO NODE ARE 0
 NODE (LAYER,ROW,COL)   3    20    50 ELIMINATED BECAUSE ALL HYDRAULIC
 CONDUCTIVITIES TO NODE ARE 0
 NODE (LAYER,ROW,COL)   3    20    51 ELIMINATED BECAUSE ALL HYDRAULIC
 CONDUCTIVITIES TO NODE ARE 0
 NODE (LAYER,ROW,COL)   3    20    52 ELIMINATED BECAUSE ALL HYDRAULIC
 CONDUCTIVITIES TO NODE ARE 0
 NODE (LAYER,ROW,COL)   3    20    58 ELIMINATED BECAUSE ALL HYDRAULIC
 CONDUCTIVITIES TO NODE ARE 0
 NODE (LAYER,ROW,COL)   3    20    59 ELIMINATED BECAUSE ALL HYDRAULIC
 CONDUCTIVITIES TO NODE ARE 0
 NODE (LAYER,ROW,COL)   3    20    60 ELIMINATED BECAUSE ALL HYDRAULIC
 CONDUCTIVITIES TO NODE ARE 0
 NODE (LAYER,ROW,COL)   3    20    61 ELIMINATED BECAUSE ALL HYDRAULIC
 CONDUCTIVITIES TO NODE ARE 0
 NODE (LAYER,ROW,COL)   3    20    62 ELIMINATED BECAUSE ALL HYDRAULIC
 CONDUCTIVITIES TO NODE ARE 0
 NODE (LAYER,ROW,COL)   3    20    63 ELIMINATED BECAUSE ALL HYDRAULIC
 CONDUCTIVITIES TO NODE ARE 0
 NODE (LAYER,ROW,COL)   3    20    64 ELIMINATED BECAUSE ALL HYDRAULIC
 CONDUCTIVITIES TO NODE ARE 0
 NODE (LAYER,ROW,COL)   3    20    65 ELIMINATED BECAUSE ALL HYDRAULIC
 CONDUCTIVITIES TO NODE ARE 0
 NODE (LAYER,ROW,COL)   3    20    66 ELIMINATED BECAUSE ALL HYDRAULIC
 CONDUCTIVITIES TO NODE ARE 0
 NODE (LAYER,ROW,COL)   3    20    67 ELIMINATED BECAUSE ALL HYDRAULIC
 CONDUCTIVITIES TO NODE ARE 0
 NODE (LAYER,ROW,COL)   3    20    72 ELIMINATED BECAUSE ALL HYDRAULIC
 CONDUCTIVITIES TO NODE ARE 0
 NODE (LAYER,ROW,COL)   3    20    85 ELIMINATED BECAUSE ALL HYDRAULIC
 CONDUCTIVITIES TO NODE ARE 0
 NODE (LAYER,ROW,COL)   3    20    86 ELIMINATED BECAUSE ALL HYDRAULIC
 CONDUCTIVITIES TO NODE ARE 0
 NODE (LAYER,ROW,COL)   3    20    87 ELIMINATED BECAUSE ALL HYDRAULIC
 CONDUCTIVITIES TO NODE ARE 0
 NODE (LAYER,ROW,COL)   3    20    88 ELIMINATED BECAUSE ALL HYDRAULIC
 CONDUCTIVITIES TO NODE ARE 0
 NODE (LAYER,ROW,COL)   3    20    89 ELIMINATED BECAUSE ALL HYDRAULIC
 CONDUCTIVITIES TO NODE ARE 0
 NODE (LAYER,ROW,COL)   3    20    90 ELIMINATED BECAUSE ALL HYDRAULIC
 CONDUCTIVITIES TO NODE ARE 0
 NODE (LAYER,ROW,COL)   3    21     4 ELIMINATED BECAUSE ALL HYDRAULIC
 CONDUCTIVITIES TO NODE ARE 0
 NODE (LAYER,ROW,COL)   3    21     5 ELIMINATED BECAUSE ALL HYDRAULIC
 CONDUCTIVITIES TO NODE ARE 0
 NODE (LAYER,ROW,COL)   3    21     6 ELIMINATED BECAUSE ALL HYDRAULIC
 CONDUCTIVITIES TO NODE ARE 0
 NODE (LAYER,ROW,COL)   3    21     7 ELIMINATED BECAUSE ALL HYDRAULIC
 CONDUCTIVITIES TO NODE ARE 0
 NODE (LAYER,ROW,COL)   3    21     8 ELIMINATED BECAUSE ALL HYDRAULIC
 CONDUCTIVITIES TO NODE ARE 0
 NODE (LAYER,ROW,COL)   3    21     9 ELIMINATED BECAUSE ALL HYDRAULIC
 CONDUCTIVITIES TO NODE ARE 0
 NODE (LAYER,ROW,COL)   3    21    10 ELIMINATED BECAUSE ALL HYDRAULIC
 CONDUCTIVITIES TO NODE ARE 0
 NODE (LAYER,ROW,COL)   3    21    11 ELIMINATED BECAUSE ALL HYDRAULIC
 CONDUCTIVITIES TO NODE ARE 0
 NODE (LAYER,ROW,COL)   3    21    12 ELIMINATED BECAUSE ALL HYDRAULIC
 CONDUCTIVITIES TO NODE ARE 0
 NODE (LAYER,ROW,COL)   3    21    13 ELIMINATED BECAUSE ALL HYDRAULIC
 CONDUCTIVITIES TO NODE ARE 0
 NODE (LAYER,ROW,COL)   3    21    14 ELIMINATED BECAUSE ALL HYDRAULIC
 CONDUCTIVITIES TO NODE ARE 0
 NODE (LAYER,ROW,COL)   3    21    15 ELIMINATED BECAUSE ALL HYDRAULIC
 CONDUCTIVITIES TO NODE ARE 0
 NODE (LAYER,ROW,COL)   3    21    16 ELIMINATED BECAUSE ALL HYDRAULIC
 CONDUCTIVITIES TO NODE ARE 0
 NODE (LAYER,ROW,COL)   3    21    17 ELIMINATED BECAUSE ALL HYDRAULIC
 CONDUCTIVITIES TO NODE ARE 0
 NODE (LAYER,ROW,COL)   3    21    18 ELIMINATED BECAUSE ALL HYDRAULIC
 CONDUCTIVITIES TO NODE ARE 0
 NODE (LAYER,ROW,COL)   3    21    37 ELIMINATED BECAUSE ALL HYDRAULIC
 CONDUCTIVITIES TO NODE ARE 0
 NODE (LAYER,ROW,COL)   3    21    38 ELIMINATED BECAUSE ALL HYDRAULIC
 CONDUCTIVITIES TO NODE ARE 0
 NODE (LAYER,ROW,COL)   3    21    39 ELIMINATED BECAUSE ALL HYDRAULIC
 CONDUCTIVITIES TO NODE ARE 0
 NODE (LAYER,ROW,COL)   3    21    40 ELIMINATED BECAUSE ALL HYDRAULIC
 CONDUCTIVITIES TO NODE ARE 0
 NODE (LAYER,ROW,COL)   3    21    41 ELIMINATED BECAUSE ALL HYDRAULIC
 CONDUCTIVITIES TO NODE ARE 0
 NODE (LAYER,ROW,COL)   3    21    42 ELIMINATED BECAUSE ALL HYDRAULIC
 CONDUCTIVITIES TO NODE ARE 0
 NODE (LAYER,ROW,COL)   3    21    43 ELIMINATED BECAUSE ALL HYDRAULIC
 CONDUCTIVITIES TO NODE ARE 0
 NODE (LAYER,ROW,COL)   3    21    44 ELIMINATED BECAUSE ALL HYDRAULIC
 CONDUCTIVITIES TO NODE ARE 0
 NODE (LAYER,ROW,COL)   3    21    45 ELIMINATED BECAUSE ALL HYDRAULIC
 CONDUCTIVITIES TO NODE ARE 0
 NODE (LAYER,ROW,COL)   3    21    46 ELIMINATED BECAUSE ALL HYDRAULIC
 CONDUCTIVITIES TO NODE ARE 0
 NODE (LAYER,ROW,COL)   3    21    51 ELIMINATED BECAUSE ALL HYDRAULIC
 CONDUCTIVITIES TO NODE ARE 0
 NODE (LAYER,ROW,COL)   3    21    52 ELIMINATED BECAUSE ALL HYDRAULIC
 CONDUCTIVITIES TO NODE ARE 0
 NODE (LAYER,ROW,COL)   3    21    57 ELIMINATED BECAUSE ALL HYDRAULIC
 CONDUCTIVITIES TO NODE ARE 0
 NODE (LAYER,ROW,COL)   3    21    58 ELIMINATED BECAUSE ALL HYDRAULIC
 CONDUCTIVITIES TO NODE ARE 0
 NODE (LAYER,ROW,COL)   3    21    59 ELIMINATED BECAUSE ALL HYDRAULIC
 CONDUCTIVITIES TO NODE ARE 0
 NODE (LAYER,ROW,COL)   3    21    60 ELIMINATED BECAUSE ALL HYDRAULIC
 CONDUCTIVITIES TO NODE ARE 0
 NODE (LAYER,ROW,COL)   3    21    61 ELIMINATED BECAUSE ALL HYDRAULIC
 CONDUCTIVITIES TO NODE ARE 0
 NODE (LAYER,ROW,COL)   3    21    62 ELIMINATED BECAUSE ALL HYDRAULIC
 CONDUCTIVITIES TO NODE ARE 0
 NODE (LAYER,ROW,COL)   3    21    63 ELIMINATED BECAUSE ALL HYDRAULIC
 CONDUCTIVITIES TO NODE ARE 0
 NODE (LAYER,ROW,COL)   3    21    64 ELIMINATED BECAUSE ALL HYDRAULIC
 CONDUCTIVITIES TO NODE ARE 0
 NODE (LAYER,ROW,COL)   3    21    65 ELIMINATED BECAUSE ALL HYDRAULIC
 CONDUCTIVITIES TO NODE ARE 0
 NODE (LAYER,ROW,COL)   3    21    66 ELIMINATED BECAUSE ALL HYDRAULIC
 CONDUCTIVITIES TO NODE ARE 0
 NODE (LAYER,ROW,COL)   3    21    67 ELIMINATED BECAUSE ALL HYDRAULIC
 CONDUCTIVITIES TO NODE ARE 0
 NODE (LAYER,ROW,COL)   3    21    85 ELIMINATED BECAUSE ALL HYDRAULIC
 CONDUCTIVITIES TO NODE ARE 0
 NODE (LAYER,ROW,COL)   3    21    86 ELIMINATED BECAUSE ALL HYDRAULIC
 CONDUCTIVITIES TO NODE ARE 0
 NODE (LAYER,ROW,COL)   3    21    87 ELIMINATED BECAUSE ALL HYDRAULIC
 CONDUCTIVITIES TO NODE ARE 0
 NODE (LAYER,ROW,COL)   3    21    88 ELIMINATED BECAUSE ALL HYDRAULIC
 CONDUCTIVITIES TO NODE ARE 0
 NODE (LAYER,ROW,COL)   3    21    89 ELIMINATED BECAUSE ALL HYDRAULIC
 CONDUCTIVITIES TO NODE ARE 0
 NODE (LAYER,ROW,COL)   3    21    90 ELIMINATED BECAUSE ALL HYDRAULIC
 CONDUCTIVITIES TO NODE ARE 0
 NODE (LAYER,ROW,COL)   3    21    91 ELIMINATED BECAUSE ALL HYDRAULIC
 CONDUCTIVITIES TO NODE ARE 0
 NODE (LAYER,ROW,COL)   3    22     4 ELIMINATED BECAUSE ALL HYDRAULIC
 CONDUCTIVITIES TO NODE ARE 0
 NODE (LAYER,ROW,COL)   3    22     5 ELIMINATED BECAUSE ALL HYDRAULIC
 CONDUCTIVITIES TO NODE ARE 0
 NODE (LAYER,ROW,COL)   3    22     6 ELIMINATED BECAUSE ALL HYDRAULIC
 CONDUCTIVITIES TO NODE ARE 0
 NODE (LAYER,ROW,COL)   3    22    10 ELIMINATED BECAUSE ALL HYDRAULIC
 CONDUCTIVITIES TO NODE ARE 0
 NODE (LAYER,ROW,COL)   3    22    11 ELIMINATED BECAUSE ALL HYDRAULIC
 CONDUCTIVITIES TO NODE ARE 0
 NODE (LAYER,ROW,COL)   3    22    12 ELIMINATED BECAUSE ALL HYDRAULIC
 CONDUCTIVITIES TO NODE ARE 0
 NODE (LAYER,ROW,COL)   3    22    13 ELIMINATED BECAUSE ALL HYDRAULIC
 CONDUCTIVITIES TO NODE ARE 0
 NODE (LAYER,ROW,COL)   3    22    14 ELIMINATED BECAUSE ALL HYDRAULIC
 CONDUCTIVITIES TO NODE ARE 0
 NODE (LAYER,ROW,COL)   3    22    15 ELIMINATED BECAUSE ALL HYDRAULIC
 CONDUCTIVITIES TO NODE ARE 0
 NODE (LAYER,ROW,COL)   3    22    16 ELIMINATED BECAUSE ALL HYDRAULIC
 CONDUCTIVITIES TO NODE ARE 0
 NODE (LAYER,ROW,COL)   3    22    17 ELIMINATED BECAUSE ALL HYDRAULIC
 CONDUCTIVITIES TO NODE ARE 0
 NODE (LAYER,ROW,COL)   3    22    18 ELIMINATED BECAUSE ALL HYDRAULIC
 CONDUCTIVITIES TO NODE ARE 0
 NODE (LAYER,ROW,COL)   3    22    19 ELIMINATED BECAUSE ALL HYDRAULIC
 CONDUCTIVITIES TO NODE ARE 0
 NODE (LAYER,ROW,COL)   3    22    37 ELIMINATED BECAUSE ALL HYDRAULIC
 CONDUCTIVITIES TO NODE ARE 0
 NODE (LAYER,ROW,COL)   3    22    38 ELIMINATED BECAUSE ALL HYDRAULIC
 CONDUCTIVITIES TO NODE ARE 0
 NODE (LAYER,ROW,COL)   3    22    39 ELIMINATED BECAUSE ALL HYDRAULIC
 CONDUCTIVITIES TO NODE ARE 0
 NODE (LAYER,ROW,COL)   3    22    40 ELIMINATED BECAUSE ALL HYDRAULIC
 CONDUCTIVITIES TO NODE ARE 0
 NODE (LAYER,ROW,COL)   3    22    41 ELIMINATED BECAUSE ALL HYDRAULIC
 CONDUCTIVITIES TO NODE ARE 0
 NODE (LAYER,ROW,COL)   3    22    42 ELIMINATED BECAUSE ALL HYDRAULIC
 CONDUCTIVITIES TO NODE ARE 0
 NODE (LAYER,ROW,COL)   3    22    46 ELIMINATED BECAUSE ALL HYDRAULIC
 CONDUCTIVITIES TO NODE ARE 0
 NODE (LAYER,ROW,COL)   3    22    51 ELIMINATED BECAUSE ALL HYDRAULIC
 CONDUCTIVITIES TO NODE ARE 0
 NODE (LAYER,ROW,COL)   3    22    56 ELIMINATED BECAUSE ALL HYDRAULIC
 CONDUCTIVITIES TO NODE ARE 0
 NODE (LAYER,ROW,COL)   3    22    57 ELIMINATED BECAUSE ALL HYDRAULIC
 CONDUCTIVITIES TO NODE ARE 0
 NODE (LAYER,ROW,COL)   3    22    58 ELIMINATED BECAUSE ALL HYDRAULIC
 CONDUCTIVITIES TO NODE ARE 0
 NODE (LAYER,ROW,COL)   3    22    59 ELIMINATED BECAUSE ALL HYDRAULIC
 CONDUCTIVITIES TO NODE ARE 0
 NODE (LAYER,ROW,COL)   3    22    60 ELIMINATED BECAUSE ALL HYDRAULIC
 CONDUCTIVITIES TO NODE ARE 0
 NODE (LAYER,ROW,COL)   3    22    61 ELIMINATED BECAUSE ALL HYDRAULIC
 CONDUCTIVITIES TO NODE ARE 0
 NODE (LAYER,ROW,COL)   3    22    62 ELIMINATED BECAUSE ALL HYDRAULIC
 CONDUCTIVITIES TO NODE ARE 0
 NODE (LAYER,ROW,COL)   3    22    66 ELIMINATED BECAUSE ALL HYDRAULIC
 CONDUCTIVITIES TO NODE ARE 0
 NODE (LAYER,ROW,COL)   3    22    67 ELIMINATED BECAUSE ALL HYDRAULIC
 CONDUCTIVITIES TO NODE ARE 0
 NODE (LAYER,ROW,COL)   3    22    68 ELIMINATED BECAUSE ALL HYDRAULIC
 CONDUCTIVITIES TO NODE ARE 0
 NODE (LAYER,ROW,COL)   3    22    85 ELIMINATED BECAUSE ALL HYDRAULIC
 CONDUCTIVITIES TO NODE ARE 0
 NODE (LAYER,ROW,COL)   3    22    86 ELIMINATED BECAUSE ALL HYDRAULIC
 CONDUCTIVITIES TO NODE ARE 0
 NODE (LAYER,ROW,COL)   3    22    87 ELIMINATED BECAUSE ALL HYDRAULIC
 CONDUCTIVITIES TO NODE ARE 0
 NODE (LAYER,ROW,COL)   3    22    88 ELIMINATED BECAUSE ALL HYDRAULIC
 CONDUCTIVITIES TO NODE ARE 0
 NODE (LAYER,ROW,COL)   3    22    89 ELIMINATED BECAUSE ALL HYDRAULIC
 CONDUCTIVITIES TO NODE ARE 0
 NODE (LAYER,ROW,COL)   3    22    90 ELIMINATED BECAUSE ALL HYDRAULIC
 CONDUCTIVITIES TO NODE ARE 0
 NODE (LAYER,ROW,COL)   3    22    91 ELIMINATED BECAUSE ALL HYDRAULIC
 CONDUCTIVITIES TO NODE ARE 0
 NODE (LAYER,ROW,COL)   3    23     4 ELIMINATED BECAUSE ALL HYDRAULIC
 CONDUCTIVITIES TO NODE ARE 0
 NODE (LAYER,ROW,COL)   3    23     5 ELIMINATED BECAUSE ALL HYDRAULIC
 CONDUCTIVITIES TO NODE ARE 0
 NODE (LAYER,ROW,COL)   3    23     6 ELIMINATED BECAUSE ALL HYDRAULIC
 CONDUCTIVITIES TO NODE ARE 0
 NODE (LAYER,ROW,COL)   3    23    11 ELIMINATED BECAUSE ALL HYDRAULIC
 CONDUCTIVITIES TO NODE ARE 0
 NODE (LAYER,ROW,COL)   3    23    12 ELIMINATED BECAUSE ALL HYDRAULIC
 CONDUCTIVITIES TO NODE ARE 0
 NODE (LAYER,ROW,COL)   3    23    13 ELIMINATED BECAUSE ALL HYDRAULIC
 CONDUCTIVITIES TO NODE ARE 0
 NODE (LAYER,ROW,COL)   3    23    14 ELIMINATED BECAUSE ALL HYDRAULIC
 CONDUCTIVITIES TO NODE ARE 0
 NODE (LAYER,ROW,COL)   3    23    15 ELIMINATED BECAUSE ALL HYDRAULIC
 CONDUCTIVITIES TO NODE ARE 0
 NODE (LAYER,ROW,COL)   3    23    16 ELIMINATED BECAUSE ALL HYDRAULIC
 CONDUCTIVITIES TO NODE ARE 0
 NODE (LAYER,ROW,COL)   3    23    17 ELIMINATED BECAUSE ALL HYDRAULIC
 CONDUCTIVITIES TO NODE ARE 0
 NODE (LAYER,ROW,COL)   3    23    18 ELIMINATED BECAUSE ALL HYDRAULIC
 CONDUCTIVITIES TO NODE ARE 0
 NODE (LAYER,ROW,COL)   3    23    19 ELIMINATED BECAUSE ALL HYDRAULIC
 CONDUCTIVITIES TO NODE ARE 0
 NODE (LAYER,ROW,COL)   3    23    20 ELIMINATED BECAUSE ALL HYDRAULIC
 CONDUCTIVITIES TO NODE ARE 0
 NODE (LAYER,ROW,COL)   3    23    21 ELIMINATED BECAUSE ALL HYDRAULIC
 CONDUCTIVITIES TO NODE ARE 0
 NODE (LAYER,ROW,COL)   3    23    37 ELIMINATED BECAUSE ALL HYDRAULIC
 CONDUCTIVITIES TO NODE ARE 0
 NODE (LAYER,ROW,COL)   3    23    38 ELIMINATED BECAUSE ALL HYDRAULIC
 CONDUCTIVITIES TO NODE ARE 0
 NODE (LAYER,ROW,COL)   3    23    39 ELIMINATED BECAUSE ALL HYDRAULIC
 CONDUCTIVITIES TO NODE ARE 0
 NODE (LAYER,ROW,COL)   3    23    40 ELIMINATED BECAUSE ALL HYDRAULIC
 CONDUCTIVITIES TO NODE ARE 0
 NODE (LAYER,ROW,COL)   3    23    41 ELIMINATED BECAUSE ALL HYDRAULIC
 CONDUCTIVITIES TO NODE ARE 0
 NODE (LAYER,ROW,COL)   3    23    42 ELIMINATED BECAUSE ALL HYDRAULIC
 CONDUCTIVITIES TO NODE ARE 0
 NODE (LAYER,ROW,COL)   3    23    47 ELIMINATED BECAUSE ALL HYDRAULIC
 CONDUCTIVITIES TO NODE ARE 0
 NODE (LAYER,ROW,COL)   3    23    56 ELIMINATED BECAUSE ALL HYDRAULIC
 CONDUCTIVITIES TO NODE ARE 0
 NODE (LAYER,ROW,COL)   3    23    57 ELIMINATED BECAUSE ALL HYDRAULIC
 CONDUCTIVITIES TO NODE ARE 0
 NODE (LAYER,ROW,COL)   3    23    58 ELIMINATED BECAUSE ALL HYDRAULIC
 CONDUCTIVITIES TO NODE ARE 0
 NODE (LAYER,ROW,COL)   3    23    59 ELIMINATED BECAUSE ALL HYDRAULIC
 CONDUCTIVITIES TO NODE ARE 0
 NODE (LAYER,ROW,COL)   3    23    60 ELIMINATED BECAUSE ALL HYDRAULIC
 CONDUCTIVITIES TO NODE ARE 0
 NODE (LAYER,ROW,COL)   3    23    61 ELIMINATED BECAUSE ALL HYDRAULIC
 CONDUCTIVITIES TO NODE ARE 0
 NODE (LAYER,ROW,COL)   3    23    62 ELIMINATED BECAUSE ALL HYDRAULIC
 CONDUCTIVITIES TO NODE ARE 0
 NODE (LAYER,ROW,COL)   3    23    85 ELIMINATED BECAUSE ALL HYDRAULIC
 CONDUCTIVITIES TO NODE ARE 0
 NODE (LAYER,ROW,COL)   3    23    86 ELIMINATED BECAUSE ALL HYDRAULIC
 CONDUCTIVITIES TO NODE ARE 0
 NODE (LAYER,ROW,COL)   3    23    87 ELIMINATED BECAUSE ALL HYDRAULIC
 CONDUCTIVITIES TO NODE ARE 0
 NODE (LAYER,ROW,COL)   3    23    88 ELIMINATED BECAUSE ALL HYDRAULIC
 CONDUCTIVITIES TO NODE ARE 0
 NODE (LAYER,ROW,COL)   3    23    89 ELIMINATED BECAUSE ALL HYDRAULIC
 CONDUCTIVITIES TO NODE ARE 0
 NODE (LAYER,ROW,COL)   3    23    90 ELIMINATED BECAUSE ALL HYDRAULIC
 CONDUCTIVITIES TO NODE ARE 0
 NODE (LAYER,ROW,COL)   3    23    91 ELIMINATED BECAUSE ALL HYDRAULIC
 CONDUCTIVITIES TO NODE ARE 0
 NODE (LAYER,ROW,COL)   3    23    92 ELIMINATED BECAUSE ALL HYDRAULIC
 CONDUCTIVITIES TO NODE ARE 0
 NODE (LAYER,ROW,COL)   3    24     4 ELIMINATED BECAUSE ALL HYDRAULIC
 CONDUCTIVITIES TO NODE ARE 0
 NODE (LAYER,ROW,COL)   3    24     5 ELIMINATED BECAUSE ALL HYDRAULIC
 CONDUCTIVITIES TO NODE ARE 0
 NODE (LAYER,ROW,COL)   3    24     6 ELIMINATED BECAUSE ALL HYDRAULIC
 CONDUCTIVITIES TO NODE ARE 0
 NODE (LAYER,ROW,COL)   3    24    11 ELIMINATED BECAUSE ALL HYDRAULIC
 CONDUCTIVITIES TO NODE ARE 0
 NODE (LAYER,ROW,COL)   3    24    12 ELIMINATED BECAUSE ALL HYDRAULIC
 CONDUCTIVITIES TO NODE ARE 0
 NODE (LAYER,ROW,COL)   3    24    13 ELIMINATED BECAUSE ALL HYDRAULIC
 CONDUCTIVITIES TO NODE ARE 0
 NODE (LAYER,ROW,COL)   3    24    14 ELIMINATED BECAUSE ALL HYDRAULIC
 CONDUCTIVITIES TO NODE ARE 0
 NODE (LAYER,ROW,COL)   3    24    15 ELIMINATED BECAUSE ALL HYDRAULIC
 CONDUCTIVITIES TO NODE ARE 0
 NODE (LAYER,ROW,COL)   3    24    16 ELIMINATED BECAUSE ALL HYDRAULIC
 CONDUCTIVITIES TO NODE ARE 0
 NODE (LAYER,ROW,COL)   3    24    17 ELIMINATED BECAUSE ALL HYDRAULIC
 CONDUCTIVITIES TO NODE ARE 0
 NODE (LAYER,ROW,COL)   3    24    18 ELIMINATED BECAUSE ALL HYDRAULIC
 CONDUCTIVITIES TO NODE ARE 0
 NODE (LAYER,ROW,COL)   3    24    25 ELIMINATED BECAUSE ALL HYDRAULIC
 CONDUCTIVITIES TO NODE ARE 0
 NODE (LAYER,ROW,COL)   3    24    37 ELIMINATED BECAUSE ALL HYDRAULIC
 CONDUCTIVITIES TO NODE ARE 0
 NODE (LAYER,ROW,COL)   3    24    38 ELIMINATED BECAUSE ALL HYDRAULIC
 CONDUCTIVITIES TO NODE ARE 0
 NODE (LAYER,ROW,COL)   3    24    39 ELIMINATED BECAUSE ALL HYDRAULIC
 CONDUCTIVITIES TO NODE ARE 0
 NODE (LAYER,ROW,COL)   3    24    40 ELIMINATED BECAUSE ALL HYDRAULIC
 CONDUCTIVITIES TO NODE ARE 0
 NODE (LAYER,ROW,COL)   3    24    41 ELIMINATED BECAUSE ALL HYDRAULIC
 CONDUCTIVITIES TO NODE ARE 0
 NODE (LAYER,ROW,COL)   3    24    42 ELIMINATED BECAUSE ALL HYDRAULIC
 CONDUCTIVITIES TO NODE ARE 0
 NODE (LAYER,ROW,COL)   3    24    55 ELIMINATED BECAUSE ALL HYDRAULIC
 CONDUCTIVITIES TO NODE ARE 0
 NODE (LAYER,ROW,COL)   3    24    56 ELIMINATED BECAUSE ALL HYDRAULIC
 CONDUCTIVITIES TO NODE ARE 0
 NODE (LAYER,ROW,COL)   3    24    57 ELIMINATED BECAUSE ALL HYDRAULIC
 CONDUCTIVITIES TO NODE ARE 0
 NODE (LAYER,ROW,COL)   3    24    58 ELIMINATED BECAUSE ALL HYDRAULIC
 CONDUCTIVITIES TO NODE ARE 0
 NODE (LAYER,ROW,COL)   3    24    59 ELIMINATED BECAUSE ALL HYDRAULIC
 CONDUCTIVITIES TO NODE ARE 0
 NODE (LAYER,ROW,COL)   3    24    60 ELIMINATED BECAUSE ALL HYDRAULIC
 CONDUCTIVITIES TO NODE ARE 0
 NODE (LAYER,ROW,COL)   3    24    61 ELIMINATED BECAUSE ALL HYDRAULIC
 CONDUCTIVITIES TO NODE ARE 0
 NODE (LAYER,ROW,COL)   3    24    62 ELIMINATED BECAUSE ALL HYDRAULIC
 CONDUCTIVITIES TO NODE ARE 0
 NODE (LAYER,ROW,COL)   3    24    85 ELIMINATED BECAUSE ALL HYDRAULIC
 CONDUCTIVITIES TO NODE ARE 0
 NODE (LAYER,ROW,COL)   3    24    86 ELIMINATED BECAUSE ALL HYDRAULIC
 CONDUCTIVITIES TO NODE ARE 0
 NODE (LAYER,ROW,COL)   3    24    87 ELIMINATED BECAUSE ALL HYDRAULIC
 CONDUCTIVITIES TO NODE ARE 0
 NODE (LAYER,ROW,COL)   3    24    88 ELIMINATED BECAUSE ALL HYDRAULIC
 CONDUCTIVITIES TO NODE ARE 0
 NODE (LAYER,ROW,COL)   3    24    89 ELIMINATED BECAUSE ALL HYDRAULIC
 CONDUCTIVITIES TO NODE ARE 0
 NODE (LAYER,ROW,COL)   3    24    90 ELIMINATED BECAUSE ALL HYDRAULIC
 CONDUCTIVITIES TO NODE ARE 0
 NODE (LAYER,ROW,COL)   3    24    91 ELIMINATED BECAUSE ALL HYDRAULIC
 CONDUCTIVITIES TO NODE ARE 0
 NODE (LAYER,ROW,COL)   3    24    92 ELIMINATED BECAUSE ALL HYDRAULIC
 CONDUCTIVITIES TO NODE ARE 0
 NODE (LAYER,ROW,COL)   3    24    93 ELIMINATED BECAUSE ALL HYDRAULIC
 CONDUCTIVITIES TO NODE ARE 0
 NODE (LAYER,ROW,COL)   3    24    94 ELIMINATED BECAUSE ALL HYDRAULIC
 CONDUCTIVITIES TO NODE ARE 0
 NODE (LAYER,ROW,COL)   3    25     4 ELIMINATED BECAUSE ALL HYDRAULIC
 CONDUCTIVITIES TO NODE ARE 0
 NODE (LAYER,ROW,COL)   3    25     5 ELIMINATED BECAUSE ALL HYDRAULIC
 CONDUCTIVITIES TO NODE ARE 0
 NODE (LAYER,ROW,COL)   3    25     6 ELIMINATED BECAUSE ALL HYDRAULIC
 CONDUCTIVITIES TO NODE ARE 0
 NODE (LAYER,ROW,COL)   3    25     7 ELIMINATED BECAUSE ALL HYDRAULIC
 CONDUCTIVITIES TO NODE ARE 0
 NODE (LAYER,ROW,COL)   3    25    12 ELIMINATED BECAUSE ALL HYDRAULIC
 CONDUCTIVITIES TO NODE ARE 0
 NODE (LAYER,ROW,COL)   3    25    13 ELIMINATED BECAUSE ALL HYDRAULIC
 CONDUCTIVITIES TO NODE ARE 0
 NODE (LAYER,ROW,COL)   3    25    14 ELIMINATED BECAUSE ALL HYDRAULIC
 CONDUCTIVITIES TO NODE ARE 0
 NODE (LAYER,ROW,COL)   3    25    15 ELIMINATED BECAUSE ALL HYDRAULIC
 CONDUCTIVITIES TO NODE ARE 0
 NODE (LAYER,ROW,COL)   3    25    16 ELIMINATED BECAUSE ALL HYDRAULIC
 CONDUCTIVITIES TO NODE ARE 0
 NODE (LAYER,ROW,COL)   3    25    17 ELIMINATED BECAUSE ALL HYDRAULIC
 CONDUCTIVITIES TO NODE ARE 0
 NODE (LAYER,ROW,COL)   3    25    18 ELIMINATED BECAUSE ALL HYDRAULIC
 CONDUCTIVITIES TO NODE ARE 0
 NODE (LAYER,ROW,COL)   3    25    25 ELIMINATED BECAUSE ALL HYDRAULIC
 CONDUCTIVITIES TO NODE ARE 0
 NODE (LAYER,ROW,COL)   3    25    26 ELIMINATED BECAUSE ALL HYDRAULIC
 CONDUCTIVITIES TO NODE ARE 0
 NODE (LAYER,ROW,COL)   3    25    37 ELIMINATED BECAUSE ALL HYDRAULIC
 CONDUCTIVITIES TO NODE ARE 0
 NODE (LAYER,ROW,COL)   3    25    38 ELIMINATED BECAUSE ALL HYDRAULIC
 CONDUCTIVITIES TO NODE ARE 0
 NODE (LAYER,ROW,COL)   3    25    39 ELIMINATED BECAUSE ALL HYDRAULIC
 CONDUCTIVITIES TO NODE ARE 0
 NODE (LAYER,ROW,COL)   3    25    40 ELIMINATED BECAUSE ALL HYDRAULIC
 CONDUCTIVITIES TO NODE ARE 0
 NODE (LAYER,ROW,COL)   3    25    41 ELIMINATED BECAUSE ALL HYDRAULIC
 CONDUCTIVITIES TO NODE ARE 0
 NODE (LAYER,ROW,COL)   3    25    42 ELIMINATED BECAUSE ALL HYDRAULIC
 CONDUCTIVITIES TO NODE ARE 0
 NODE (LAYER,ROW,COL)   3    25    43 ELIMINATED BECAUSE ALL HYDRAULIC
 CONDUCTIVITIES TO NODE ARE 0
 NODE (LAYER,ROW,COL)   3    25    54 ELIMINATED BECAUSE ALL HYDRAULIC
 CONDUCTIVITIES TO NODE ARE 0
 NODE (LAYER,ROW,COL)   3    25    55 ELIMINATED BECAUSE ALL HYDRAULIC
 CONDUCTIVITIES TO NODE ARE 0
 NODE (LAYER,ROW,COL)   3    25    56 ELIMINATED BECAUSE ALL HYDRAULIC
 CONDUCTIVITIES TO NODE ARE 0
 NODE (LAYER,ROW,COL)   3    25    57 ELIMINATED BECAUSE ALL HYDRAULIC
 CONDUCTIVITIES TO NODE ARE 0
 NODE (LAYER,ROW,COL)   3    25    58 ELIMINATED BECAUSE ALL HYDRAULIC
 CONDUCTIVITIES TO NODE ARE 0
 NODE (LAYER,ROW,COL)   3    25    59 ELIMINATED BECAUSE ALL HYDRAULIC
 CONDUCTIVITIES TO NODE ARE 0
 NODE (LAYER,ROW,COL)   3    25    60 ELIMINATED BECAUSE ALL HYDRAULIC
 CONDUCTIVITIES TO NODE ARE 0
 NODE (LAYER,ROW,COL)   3    25    61 ELIMINATED BECAUSE ALL HYDRAULIC
 CONDUCTIVITIES TO NODE ARE 0
 NODE (LAYER,ROW,COL)   3    25    62 ELIMINATED BECAUSE ALL HYDRAULIC
 CONDUCTIVITIES TO NODE ARE 0
 NODE (LAYER,ROW,COL)   3    25    63 ELIMINATED BECAUSE ALL HYDRAULIC
 CONDUCTIVITIES TO NODE ARE 0
 NODE (LAYER,ROW,COL)   3    25    72 ELIMINATED BECAUSE ALL HYDRAULIC
 CONDUCTIVITIES TO NODE ARE 0
 NODE (LAYER,ROW,COL)   3    25    86 ELIMINATED BECAUSE ALL HYDRAULIC
 CONDUCTIVITIES TO NODE ARE 0
 NODE (LAYER,ROW,COL)   3    25    87 ELIMINATED BECAUSE ALL HYDRAULIC
 CONDUCTIVITIES TO NODE ARE 0
 NODE (LAYER,ROW,COL)   3    25    88 ELIMINATED BECAUSE ALL HYDRAULIC
 CONDUCTIVITIES TO NODE ARE 0
 NODE (LAYER,ROW,COL)   3    25    89 ELIMINATED BECAUSE ALL HYDRAULIC
 CONDUCTIVITIES TO NODE ARE 0
 NODE (LAYER,ROW,COL)   3    25    90 ELIMINATED BECAUSE ALL HYDRAULIC
 CONDUCTIVITIES TO NODE ARE 0
 NODE (LAYER,ROW,COL)   3    25    91 ELIMINATED BECAUSE ALL HYDRAULIC
 CONDUCTIVITIES TO NODE ARE 0
 NODE (LAYER,ROW,COL)   3    25    92 ELIMINATED BECAUSE ALL HYDRAULIC
 CONDUCTIVITIES TO NODE ARE 0
 NODE (LAYER,ROW,COL)   3    25    93 ELIMINATED BECAUSE ALL HYDRAULIC
 CONDUCTIVITIES TO NODE ARE 0
 NODE (LAYER,ROW,COL)   3    25    94 ELIMINATED BECAUSE ALL HYDRAULIC
 CONDUCTIVITIES TO NODE ARE 0
 NODE (LAYER,ROW,COL)   3    25    95 ELIMINATED BECAUSE ALL HYDRAULIC
 CONDUCTIVITIES TO NODE ARE 0
 NODE (LAYER,ROW,COL)   3    25    96 ELIMINATED BECAUSE ALL HYDRAULIC
 CONDUCTIVITIES TO NODE ARE 0
 NODE (LAYER,ROW,COL)   3    26     4 ELIMINATED BECAUSE ALL HYDRAULIC
 CONDUCTIVITIES TO NODE ARE 0
 NODE (LAYER,ROW,COL)   3    26     5 ELIMINATED BECAUSE ALL HYDRAULIC
 CONDUCTIVITIES TO NODE ARE 0
 NODE (LAYER,ROW,COL)   3    26     6 ELIMINATED BECAUSE ALL HYDRAULIC
 CONDUCTIVITIES TO NODE ARE 0
 NODE (LAYER,ROW,COL)   3    26     7 ELIMINATED BECAUSE ALL HYDRAULIC
 CONDUCTIVITIES TO NODE ARE 0
 NODE (LAYER,ROW,COL)   3    26    13 ELIMINATED BECAUSE ALL HYDRAULIC
 CONDUCTIVITIES TO NODE ARE 0
 NODE (LAYER,ROW,COL)   3    26    14 ELIMINATED BECAUSE ALL HYDRAULIC
 CONDUCTIVITIES TO NODE ARE 0
 NODE (LAYER,ROW,COL)   3    26    15 ELIMINATED BECAUSE ALL HYDRAULIC
 CONDUCTIVITIES TO NODE ARE 0
 NODE (LAYER,ROW,COL)   3    26    16 ELIMINATED BECAUSE ALL HYDRAULIC
 CONDUCTIVITIES TO NODE ARE 0
 NODE (LAYER,ROW,COL)   3    26    17 ELIMINATED BECAUSE ALL HYDRAULIC
 CONDUCTIVITIES TO NODE ARE 0
 NODE (LAYER,ROW,COL)   3    26    18 ELIMINATED BECAUSE ALL HYDRAULIC
 CONDUCTIVITIES TO NODE ARE 0
 NODE (LAYER,ROW,COL)   3    26    25 ELIMINATED BECAUSE ALL HYDRAULIC
 CONDUCTIVITIES TO NODE ARE 0
 NODE (LAYER,ROW,COL)   3    26    26 ELIMINATED BECAUSE ALL HYDRAULIC
 CONDUCTIVITIES TO NODE ARE 0
 NODE (LAYER,ROW,COL)   3    26    27 ELIMINATED BECAUSE ALL HYDRAULIC
 CONDUCTIVITIES TO NODE ARE 0
 NODE (LAYER,ROW,COL)   3    26    36 ELIMINATED BECAUSE ALL HYDRAULIC
 CONDUCTIVITIES TO NODE ARE 0
 NODE (LAYER,ROW,COL)   3    26    37 ELIMINATED BECAUSE ALL HYDRAULIC
 CONDUCTIVITIES TO NODE ARE 0
 NODE (LAYER,ROW,COL)   3    26    38 ELIMINATED BECAUSE ALL HYDRAULIC
 CONDUCTIVITIES TO NODE ARE 0
 NODE (LAYER,ROW,COL)   3    26    39 ELIMINATED BECAUSE ALL HYDRAULIC
 CONDUCTIVITIES TO NODE ARE 0
 NODE (LAYER,ROW,COL)   3    26    40 ELIMINATED BECAUSE ALL HYDRAULIC
 CONDUCTIVITIES TO NODE ARE 0
 NODE (LAYER,ROW,COL)   3    26    41 ELIMINATED BECAUSE ALL HYDRAULIC
 CONDUCTIVITIES TO NODE ARE 0
 NODE (LAYER,ROW,COL)   3    26    42 ELIMINATED BECAUSE ALL HYDRAULIC
 CONDUCTIVITIES TO NODE ARE 0
 NODE (LAYER,ROW,COL)   3    26    43 ELIMINATED BECAUSE ALL HYDRAULIC
 CONDUCTIVITIES TO NODE ARE 0
 NODE (LAYER,ROW,COL)   3    26    44 ELIMINATED BECAUSE ALL HYDRAULIC
 CONDUCTIVITIES TO NODE ARE 0
 NODE (LAYER,ROW,COL)   3    26    53 ELIMINATED BECAUSE ALL HYDRAULIC
 CONDUCTIVITIES TO NODE ARE 0
 NODE (LAYER,ROW,COL)   3    26    54 ELIMINATED BECAUSE ALL HYDRAULIC
 CONDUCTIVITIES TO NODE ARE 0
 NODE (LAYER,ROW,COL)   3    26    55 ELIMINATED BECAUSE ALL HYDRAULIC
 CONDUCTIVITIES TO NODE ARE 0
 NODE (LAYER,ROW,COL)   3    26    56 ELIMINATED BECAUSE ALL HYDRAULIC
 CONDUCTIVITIES TO NODE ARE 0
 NODE (LAYER,ROW,COL)   3    26    57 ELIMINATED BECAUSE ALL HYDRAULIC
 CONDUCTIVITIES TO NODE ARE 0
 NODE (LAYER,ROW,COL)   3    26    58 ELIMINATED BECAUSE ALL HYDRAULIC
 CONDUCTIVITIES TO NODE ARE 0
 NODE (LAYER,ROW,COL)   3    26    59 ELIMINATED BECAUSE ALL HYDRAULIC
 CONDUCTIVITIES TO NODE ARE 0
 NODE (LAYER,ROW,COL)   3    26    60 ELIMINATED BECAUSE ALL HYDRAULIC
 CONDUCTIVITIES TO NODE ARE 0
 NODE (LAYER,ROW,COL)   3    26    61 ELIMINATED BECAUSE ALL HYDRAULIC
 CONDUCTIVITIES TO NODE ARE 0
 NODE (LAYER,ROW,COL)   3    26    62 ELIMINATED BECAUSE ALL HYDRAULIC
 CONDUCTIVITIES TO NODE ARE 0
 NODE (LAYER,ROW,COL)   3    26    63 ELIMINATED BECAUSE ALL HYDRAULIC
 CONDUCTIVITIES TO NODE ARE 0
 NODE (LAYER,ROW,COL)   3    26    64 ELIMINATED BECAUSE ALL HYDRAULIC
 CONDUCTIVITIES TO NODE ARE 0
 NODE (LAYER,ROW,COL)   3    26    65 ELIMINATED BECAUSE ALL HYDRAULIC
 CONDUCTIVITIES TO NODE ARE 0
 NODE (LAYER,ROW,COL)   3    26    69 ELIMINATED BECAUSE ALL HYDRAULIC
 CONDUCTIVITIES TO NODE ARE 0
 NODE (LAYER,ROW,COL)   3    26    70 ELIMINATED BECAUSE ALL HYDRAULIC
 CONDUCTIVITIES TO NODE ARE 0
 NODE (LAYER,ROW,COL)   3    26    71 ELIMINATED BECAUSE ALL HYDRAULIC
 CONDUCTIVITIES TO NODE ARE 0
 NODE (LAYER,ROW,COL)   3    26    72 ELIMINATED BECAUSE ALL HYDRAULIC
 CONDUCTIVITIES TO NODE ARE 0
 NODE (LAYER,ROW,COL)   3    26    73 ELIMINATED BECAUSE ALL HYDRAULIC
 CONDUCTIVITIES TO NODE ARE 0
 NODE (LAYER,ROW,COL)   3    26    85 ELIMINATED BECAUSE ALL HYDRAULIC
 CONDUCTIVITIES TO NODE ARE 0
 NODE (LAYER,ROW,COL)   3    26    86 ELIMINATED BECAUSE ALL HYDRAULIC
 CONDUCTIVITIES TO NODE ARE 0
 NODE (LAYER,ROW,COL)   3    26    87 ELIMINATED BECAUSE ALL HYDRAULIC
 CONDUCTIVITIES TO NODE ARE 0
 NODE (LAYER,ROW,COL)   3    26    88 ELIMINATED BECAUSE ALL HYDRAULIC
 CONDUCTIVITIES TO NODE ARE 0
 NODE (LAYER,ROW,COL)   3    26    89 ELIMINATED BECAUSE ALL HYDRAULIC
 CONDUCTIVITIES TO NODE ARE 0
 NODE (LAYER,ROW,COL)   3    26    90 ELIMINATED BECAUSE ALL HYDRAULIC
 CONDUCTIVITIES TO NODE ARE 0
 NODE (LAYER,ROW,COL)   3    26    91 ELIMINATED BECAUSE ALL HYDRAULIC
 CONDUCTIVITIES TO NODE ARE 0
 NODE (LAYER,ROW,COL)   3    26    92 ELIMINATED BECAUSE ALL HYDRAULIC
 CONDUCTIVITIES TO NODE ARE 0
 NODE (LAYER,ROW,COL)   3    26    93 ELIMINATED BECAUSE ALL HYDRAULIC
 CONDUCTIVITIES TO NODE ARE 0
 NODE (LAYER,ROW,COL)   3    26    94 ELIMINATED BECAUSE ALL HYDRAULIC
 CONDUCTIVITIES TO NODE ARE 0
 NODE (LAYER,ROW,COL)   3    26    95 ELIMINATED BECAUSE ALL HYDRAULIC
 CONDUCTIVITIES TO NODE ARE 0
 NODE (LAYER,ROW,COL)   3    26    96 ELIMINATED BECAUSE ALL HYDRAULIC
 CONDUCTIVITIES TO NODE ARE 0
 NODE (LAYER,ROW,COL)   3    27     4 ELIMINATED BECAUSE ALL HYDRAULIC
 CONDUCTIVITIES TO NODE ARE 0
 NODE (LAYER,ROW,COL)   3    27     5 ELIMINATED BECAUSE ALL HYDRAULIC
 CONDUCTIVITIES TO NODE ARE 0
 NODE (LAYER,ROW,COL)   3    27     6 ELIMINATED BECAUSE ALL HYDRAULIC
 CONDUCTIVITIES TO NODE ARE 0
 NODE (LAYER,ROW,COL)   3    27     7 ELIMINATED BECAUSE ALL HYDRAULIC
 CONDUCTIVITIES TO NODE ARE 0
 NODE (LAYER,ROW,COL)   3    27     8 ELIMINATED BECAUSE ALL HYDRAULIC
 CONDUCTIVITIES TO NODE ARE 0
 NODE (LAYER,ROW,COL)   3    27    14 ELIMINATED BECAUSE ALL HYDRAULIC
 CONDUCTIVITIES TO NODE ARE 0
 NODE (LAYER,ROW,COL)   3    27    15 ELIMINATED BECAUSE ALL HYDRAULIC
 CONDUCTIVITIES TO NODE ARE 0
 NODE (LAYER,ROW,COL)   3    27    16 ELIMINATED BECAUSE ALL HYDRAULIC
 CONDUCTIVITIES TO NODE ARE 0
 NODE (LAYER,ROW,COL)   3    27    17 ELIMINATED BECAUSE ALL HYDRAULIC
 CONDUCTIVITIES TO NODE ARE 0
 NODE (LAYER,ROW,COL)   3    27    18 ELIMINATED BECAUSE ALL HYDRAULIC
 CONDUCTIVITIES TO NODE ARE 0
 NODE (LAYER,ROW,COL)   3    27    19 ELIMINATED BECAUSE ALL HYDRAULIC
 CONDUCTIVITIES TO NODE ARE 0
 NODE (LAYER,ROW,COL)   3    27    20 ELIMINATED BECAUSE ALL HYDRAULIC
 CONDUCTIVITIES TO NODE ARE 0
 NODE (LAYER,ROW,COL)   3    27    26 ELIMINATED BECAUSE ALL HYDRAULIC
 CONDUCTIVITIES TO NODE ARE 0
 NODE (LAYER,ROW,COL)   3    27    27 ELIMINATED BECAUSE ALL HYDRAULIC
 CONDUCTIVITIES TO NODE ARE 0
 NODE (LAYER,ROW,COL)   3    27    28 ELIMINATED BECAUSE ALL HYDRAULIC
 CONDUCTIVITIES TO NODE ARE 0
 NODE (LAYER,ROW,COL)   3    27    29 ELIMINATED BECAUSE ALL HYDRAULIC
 CONDUCTIVITIES TO NODE ARE 0
 NODE (LAYER,ROW,COL)   3    27    37 ELIMINATED BECAUSE ALL HYDRAULIC
 CONDUCTIVITIES TO NODE ARE 0
 NODE (LAYER,ROW,COL)   3    27    38 ELIMINATED BECAUSE ALL HYDRAULIC
 CONDUCTIVITIES TO NODE ARE 0
 NODE (LAYER,ROW,COL)   3    27    39 ELIMINATED BECAUSE ALL HYDRAULIC
 CONDUCTIVITIES TO NODE ARE 0
 NODE (LAYER,ROW,COL)   3    27    40 ELIMINATED BECAUSE ALL HYDRAULIC
 CONDUCTIVITIES TO NODE ARE 0
 NODE (LAYER,ROW,COL)   3    27    41 ELIMINATED BECAUSE ALL HYDRAULIC
 CONDUCTIVITIES TO NODE ARE 0
 NODE (LAYER,ROW,COL)   3    27    42 ELIMINATED BECAUSE ALL HYDRAULIC
 CONDUCTIVITIES TO NODE ARE 0
 NODE (LAYER,ROW,COL)   3    27    43 ELIMINATED BECAUSE ALL HYDRAULIC
 CONDUCTIVITIES TO NODE ARE 0
 NODE (LAYER,ROW,COL)   3    27    44 ELIMINATED BECAUSE ALL HYDRAULIC
 CONDUCTIVITIES TO NODE ARE 0
 NODE (LAYER,ROW,COL)   3    27    45 ELIMINATED BECAUSE ALL HYDRAULIC
 CONDUCTIVITIES TO NODE ARE 0
 NODE (LAYER,ROW,COL)   3    27    46 ELIMINATED BECAUSE ALL HYDRAULIC
 CONDUCTIVITIES TO NODE ARE 0
 NODE (LAYER,ROW,COL)   3    27    56 ELIMINATED BECAUSE ALL HYDRAULIC
 CONDUCTIVITIES TO NODE ARE 0
 NODE (LAYER,ROW,COL)   3    27    57 ELIMINATED BECAUSE ALL HYDRAULIC
 CONDUCTIVITIES TO NODE ARE 0
[...]
 VALUE SHOULD BE GREATER THAN ZERO-- IT HAS BEEN RESET TO 1.0 BUT MAY CAUSE INSTABILITY

 *** WARNING *** FIRST FLOW VALUE IN TABLE OF FLOW VERSUS DEPTH AND WIDTH IS LESS THAN OR EQUAL TO ZERO FOR SEGMENT NUMBER    416
 VALUE SHOULD BE GREATER THAN ZERO-- IT HAS BEEN RESET TO 0.1 BUT MAY CAUSE INSTABILITY

 *** WARNING *** FIRST DEPTH VALUE IN TABLE OF FLOW VERSUS DEPTH AND WIDTH IS LESS THAN OR EQUAL TO ZERO FOR SEGMENT NUMBER    416
 VALUE SHOULD BE GREATER THAN ZERO-- IT HAS BEEN RESET TO 0.01 BUT MAY CAUSE INSTABILITY

 *** WARNING *** FIRST WIDTH VALUE IN TABLE OF FLOW VERSUS DEPTH AND WIDTH IS LESS THAN OR EQUAL TO ZERO FOR SEGMENT NUMBER    416
 VALUE SHOULD BE GREATER THAN ZERO-- IT HAS BEEN RESET TO 1.0 BUT MAY CAUSE INSTABILITY

 *** WARNING *** FIRST FLOW VALUE IN TABLE OF FLOW VERSUS DEPTH AND WIDTH IS LESS THAN OR EQUAL TO ZERO FOR SEGMENT NUMBER    419
 VALUE SHOULD BE GREATER THAN ZERO-- IT HAS BEEN RESET TO 0.1 BUT MAY CAUSE INSTABILITY

 *** WARNING *** FIRST DEPTH VALUE IN TABLE OF FLOW VERSUS DEPTH AND WIDTH IS LESS THAN OR EQUAL TO ZERO FOR SEGMENT NUMBER    419
 VALUE SHOULD BE GREATER THAN ZERO-- IT HAS BEEN RESET TO 0.01 BUT MAY CAUSE INSTABILITY

 *** WARNING *** FIRST WIDTH VALUE IN TABLE OF FLOW VERSUS DEPTH AND WIDTH IS LESS THAN OR EQUAL TO ZERO FOR SEGMENT NUMBER    419
 VALUE SHOULD BE GREATER THAN ZERO-- IT HAS BEEN RESET TO 1.0 BUT MAY CAUSE INSTABILITY

 *** WARNING *** FIRST FLOW VALUE IN TABLE OF FLOW VERSUS DEPTH AND WIDTH IS LESS THAN OR EQUAL TO ZERO FOR SEGMENT NUMBER    420
 VALUE SHOULD BE GREATER THAN ZERO-- IT HAS BEEN RESET TO 0.1 BUT MAY CAUSE INSTABILITY

 *** WARNING *** FIRST DEPTH VALUE IN TABLE OF FLOW VERSUS DEPTH AND WIDTH IS LESS THAN OR EQUAL TO ZERO FOR SEGMENT NUMBER    420
 VALUE SHOULD BE GREATER THAN ZERO-- IT HAS BEEN RESET TO 0.01 BUT MAY CAUSE INSTABILITY

 *** WARNING *** FIRST WIDTH VALUE IN TABLE OF FLOW VERSUS DEPTH AND WIDTH IS LESS THAN OR EQUAL TO ZERO FOR SEGMENT NUMBER    420
 VALUE SHOULD BE GREATER THAN ZERO-- IT HAS BEEN RESET TO 1.0 BUT MAY CAUSE INSTABILITY

 *** WARNING *** FIRST FLOW VALUE IN TABLE OF FLOW VERSUS DEPTH AND WIDTH IS LESS THAN OR EQUAL TO ZERO FOR SEGMENT NUMBER    421
 VALUE SHOULD BE GREATER THAN ZERO-- IT HAS BEEN RESET TO 0.1 BUT MAY CAUSE INSTABILITY

 *** WARNING *** FIRST DEPTH VALUE IN TABLE OF FLOW VERSUS DEPTH AND WIDTH IS LESS THAN OR EQUAL TO ZERO FOR SEGMENT NUMBER    421
 VALUE SHOULD BE GREATER THAN ZERO-- IT HAS BEEN RESET TO 0.01 BUT MAY CAUSE INSTABILITY

 *** WARNING *** FIRST WIDTH VALUE IN TABLE OF FLOW VERSUS DEPTH AND WIDTH IS LESS THAN OR EQUAL TO ZERO FOR SEGMENT NUMBER    421
 VALUE SHOULD BE GREATER THAN ZERO-- IT HAS BEEN RESET TO 1.0 BUT MAY CAUSE INSTABILITY

 *** WARNING *** FIRST FLOW VALUE IN TABLE OF FLOW VERSUS DEPTH AND WIDTH IS LESS THAN OR EQUAL TO ZERO FOR SEGMENT NUMBER    422
 VALUE SHOULD BE GREATER THAN ZERO-- IT HAS BEEN RESET TO 0.1 BUT MAY CAUSE INSTABILITY

 *** WARNING *** FIRST DEPTH VALUE IN TABLE OF FLOW VERSUS DEPTH AND WIDTH IS LESS THAN OR EQUAL TO ZERO FOR SEGMENT NUMBER    422
 VALUE SHOULD BE GREATER THAN ZERO-- IT HAS BEEN RESET TO 0.01 BUT MAY CAUSE INSTABILITY

 *** WARNING *** FIRST WIDTH VALUE IN TABLE OF FLOW VERSUS DEPTH AND WIDTH IS LESS THAN OR EQUAL TO ZERO FOR SEGMENT NUMBER    422
 VALUE SHOULD BE GREATER THAN ZERO-- IT HAS BEEN RESET TO 1.0 BUT MAY CAUSE INSTABILITY

 *** WARNING *** FIRST FLOW VALUE IN TABLE OF FLOW VERSUS DEPTH AND WIDTH IS LESS THAN OR EQUAL TO ZERO FOR SEGMENT NUMBER    426
 VALUE SHOULD BE GREATER THAN ZERO-- IT HAS BEEN RESET TO 0.1 BUT MAY CAUSE INSTABILITY

 *** WARNING *** FIRST DEPTH VALUE IN TABLE OF FLOW VERSUS DEPTH AND WIDTH IS LESS THAN OR EQUAL TO ZERO FOR SEGMENT NUMBER    426
 VALUE SHOULD BE GREATER THAN ZERO-- IT HAS BEEN RESET TO 0.01 BUT MAY CAUSE INSTABILITY

 *** WARNING *** FIRST WIDTH VALUE IN TABLE OF FLOW VERSUS DEPTH AND WIDTH IS LESS THAN OR EQUAL TO ZERO FOR SEGMENT NUMBER    426
 VALUE SHOULD BE GREATER THAN ZERO-- IT HAS BEEN RESET TO 1.0 BUT MAY CAUSE INSTABILITY

 *** WARNING *** FIRST FLOW VALUE IN TABLE OF FLOW VERSUS DEPTH AND WIDTH IS LESS THAN OR EQUAL TO ZERO FOR SEGMENT NUMBER    431
 VALUE SHOULD BE GREATER THAN ZERO-- IT HAS BEEN RESET TO 0.1 BUT MAY CAUSE INSTABILITY

 *** WARNING *** FIRST DEPTH VALUE IN TABLE OF FLOW VERSUS DEPTH AND WIDTH IS LESS THAN OR EQUAL TO ZERO FOR SEGMENT NUMBER    431
 VALUE SHOULD BE GREATER THAN ZERO-- IT HAS BEEN RESET TO 0.01 BUT MAY CAUSE INSTABILITY

 *** WARNING *** FIRST WIDTH VALUE IN TABLE OF FLOW VERSUS DEPTH AND WIDTH IS LESS THAN OR EQUAL TO ZERO FOR SEGMENT NUMBER    431
 VALUE SHOULD BE GREATER THAN ZERO-- IT HAS BEEN RESET TO 1.0 BUT MAY CAUSE INSTABILITY

 *** WARNING *** FIRST FLOW VALUE IN TABLE OF FLOW VERSUS DEPTH AND WIDTH IS LESS THAN OR EQUAL TO ZERO FOR SEGMENT NUMBER    434
 VALUE SHOULD BE GREATER THAN ZERO-- IT HAS BEEN RESET TO 0.1 BUT MAY CAUSE INSTABILITY

 *** WARNING *** FIRST DEPTH VALUE IN TABLE OF FLOW VERSUS DEPTH AND WIDTH IS LESS THAN OR EQUAL TO ZERO FOR SEGMENT NUMBER    434
 VALUE SHOULD BE GREATER THAN ZERO-- IT HAS BEEN RESET TO 0.01 BUT MAY CAUSE INSTABILITY

 *** WARNING *** FIRST WIDTH VALUE IN TABLE OF FLOW VERSUS DEPTH AND WIDTH IS LESS THAN OR EQUAL TO ZERO FOR SEGMENT NUMBER    434
 VALUE SHOULD BE GREATER THAN ZERO-- IT HAS BEEN RESET TO 1.0 BUT MAY CAUSE INSTABILITY

 *** WARNING *** FIRST FLOW VALUE IN TABLE OF FLOW VERSUS DEPTH AND WIDTH IS LESS THAN OR EQUAL TO ZERO FOR SEGMENT NUMBER    435
 VALUE SHOULD BE GREATER THAN ZERO-- IT HAS BEEN RESET TO 0.1 BUT MAY CAUSE INSTABILITY

 *** WARNING *** FIRST DEPTH VALUE IN TABLE OF FLOW VERSUS DEPTH AND WIDTH IS LESS THAN OR EQUAL TO ZERO FOR SEGMENT NUMBER    435
 VALUE SHOULD BE GREATER THAN ZERO-- IT HAS BEEN RESET TO 0.01 BUT MAY CAUSE INSTABILITY

 *** WARNING *** FIRST WIDTH VALUE IN TABLE OF FLOW VERSUS DEPTH AND WIDTH IS LESS THAN OR EQUAL TO ZERO FOR SEGMENT NUMBER    435
 VALUE SHOULD BE GREATER THAN ZERO-- IT HAS BEEN RESET TO 1.0 BUT MAY CAUSE INSTABILITY






            AREAL INFILTRATION RATE
 READING ON UNIT   19 WITH FORMAT: (253E15.6)          

                  ET RATE =  3.000000E-03

      ET EXTINCTION DEPTH =   3.00000    

 EXTINCTION WATER CONTENT =  0.100000    
 
 SOLVING FOR HEAD 
                                                   Max.-Head-Change                         Max.-Flux-Residual
  Residual-Control   Outer-Iter.   Inner-Iter.     Column Row Layer    Maximum-Head-Change  Column Row Layer    Maximum-Flux-Residual          L2-NORM 
          0                 1           7           104  180     2      -0.1136186877E+03      63  114    1         0.1315055394E+06      0.1675503024E+07
          0                 2          12           220  273     2      -0.3086753239E+03      76   97    3        -0.2598671102E+06      0.3266825376E+07
          0                 3          17            97  187     1      -0.2730063571E+03     118  179    3        -0.1581988726E+06      0.2118355322E+07
          0                 4          18            97  187     1       0.2617025301E+03      78   86    3        -0.6622464618E+05      0.7421842087E+06
          0                 5          18           116  209     1      -0.1827122646E+03      77   83    2        -0.3551947883E+06      0.7208635087E+06
          0                 6          18           119  210     1       0.1474880119E+03      84   82    2        -0.3655563751E+06      0.7749814420E+06
          0                 7          21           116  209     1       0.1959810099E+03      69  180    2        -0.9636621340E+05      0.2705192816E+06
          0                 8          18           114  343     1      -0.2255237844E+03     116  209    1        -0.8175642798E+05      0.1938802644E+06
          0                 9          15           117  207     1       0.9701265511E+03      84  357    1        -0.5570554648E+05      0.1679647454E+06
          0                10          20           117  207     1      -0.8542844444E+03     117  207    1        -0.1301650301E+06      0.1797849746E+06
                                                   Max.-Head-Change                         Max.-Flux-Residual
  Residual-Control   Outer-Iter.   Inner-Iter.     Column Row Layer    Maximum-Head-Change  Column Row Layer    Maximum-Flux-Residual          L2-NORM 
          0                11          14           113  210     1      -0.9788612766E+02     104  346    1        -0.2303513273E+05      0.1411891160E+06
          0                12          14           101  215     1       0.1492400230E+03     109  338    1        -0.2219574271E+05      0.7825356042E+05
          0                13          15            96  184     1      -0.7647129345E+03     118  210    1        -0.2227984717E+05      0.1100710764E+06
          0                14          15            96  184     1       0.5943191228E+03     108  206    1        -0.4385321185E+05      0.1225702851E+06
          0                15          13           117  207     1       0.1660535355E+03     104  346    1        -0.2295544548E+05      0.8680576861E+05
          0                16          14           117  207     1      -0.1277971697E+03     109  207    1        -0.4942473895E+05      0.8114394272E+05
          0                17          13            96  185     1       0.2321398394E+03     103  347    1        -0.1749731249E+05      0.7426559757E+05
          0                18          22            96  185     1      -0.1623501041E+03      96  185    1        -0.4960858307E+05      0.7903295834E+05
          0                19          13           111  210     1       0.1644257254E+03     114  343    1        -0.2298263368E+05      0.8511328904E+05
          0                20          14           111  210     1      -0.1283252042E+03     111  210    1        -0.4078934480E+05      0.6126989149E+05
                                                   Max.-Head-Change                         Max.-Flux-Residual
  Residual-Control   Outer-Iter.   Inner-Iter.     Column Row Layer    Maximum-Head-Change  Column Row Layer    Maximum-Flux-Residual          L2-NORM 
          0                21          13           105  344     1      -0.5935477528E+02     102  347    1        -0.1647330101E+05      0.6578778205E+05
          0                22          10           112  209     1       0.7130801454E+02      97  187    1        -0.9684762736E+04      0.2006248177E+05
          0                23           9           109  340     1       0.6187390415E+02      96  181    1        -0.1149299956E+05      0.4593798669E+05
          0                24           8           109  340     1      -0.4290529661E+02     109  340    1        -0.1648120821E+05      0.2620004719E+05
          0                25           9           193  286     3      -0.2962356192E+02     106  347    1        -0.9709583832E+04      0.2761966338E+05
          0                26           8           106  347     1       0.2443229832E+02     103  350    1        -0.4684822031E+04      0.8474456278E+04
          0                27           9           192  286     1      -0.2786909994E+02     106  347    1        -0.9502580304E+04      0.2053732541E+05
          0                28           8           102  197     1       0.4767001949E+02     194  286    1        -0.2184923479E+04      0.4151767401E+04
          0                29           8           102  197     1      -0.3529798407E+02     102  197    1        -0.1052106299E+05      0.1845129018E+05
          0                30           8           217  302     2      -0.6831901598E+01     192  286    1        -0.3394002553E+04      0.4394418796E+04
                                                   Max.-Head-Change                         Max.-Flux-Residual
  Residual-Control   Outer-Iter.   Inner-Iter.     Column Row Layer    Maximum-Head-Change  Column Row Layer    Maximum-Flux-Residual          L2-NORM 
          0                31           8           217  302     2       0.7106404442E+01     192  286    1        -0.1279215526E+04      0.1670207677E+04
          0                32           7           217  302     2      -0.6628751919E+01     192  286    1        -0.4520689268E+03      0.7154439795E+03
          0                33           7           217  302     2       0.5796626632E+01     217  302    2         0.1528113472E+03      0.3023232292E+03
          0                34           7           217  302     2      -0.5929468039E+01     217  302    2        -0.2561652538E+03      0.2862830355E+03
          0                35           7           217  302     2       0.5586275436E+01     217  302    2         0.1507294239E+03      0.1717562358E+03
          0                36           7           217  302     2      -0.5501780035E+01     217  302    2        -0.2510844870E+03      0.2581086949E+03
          0                37           8           217  302     2       0.5970551534E+01     217  302    2         0.1487030946E+03      0.1548758158E+03
          0                38           7           217  302     2      -0.5448488300E+01     217  302    2        -0.2529039545E+03      0.3196723788E+03
          0                39           7           217  302     2       0.4835034534E+01     217  302    2         0.1468164229E+03      0.1795015561E+03
          0                40           7           217  302     2      -0.4954142459E+01     217  302    2        -0.2460545997E+03      0.2528964815E+03
                                                   Max.-Head-Change                         Max.-Flux-Residual
  Residual-Control   Outer-Iter.   Inner-Iter.     Column Row Layer    Maximum-Head-Change  Column Row Layer    Maximum-Flux-Residual          L2-NORM 
          0                41           7           217  302     2       0.4665386415E+01     217  302    2         0.1450755584E+03      0.1478613540E+03
          0                42           6           217  302     2      -0.1151549312E+01     217  302    2        -0.2338830832E+03      0.2346707862E+03
          0                43           7           217  302     2      -0.5434171108E+00     217  302    2        -0.1428194377E+03      0.1433557117E+03
          0                44           6           217  302     2      -0.3332341071E+00     217  302    2        -0.8755677717E+02      0.8787178392E+02
          0                45           6           217  302     2      -0.2043112299E+00     217  302    2        -0.5366873038E+02      0.5387913369E+02
          0                46           5           217  302     2      -0.1252476149E+00     217  302    2        -0.3289137252E+02      0.3303998546E+02
          0                47           5           217  302     2      -0.7986206175E-01     217  302    2        -0.2015449531E+02      0.2027117483E+02
          0                48           5           217  302     2      -0.4894009934E-01     217  302    2        -0.1234786220E+02      0.1250570719E+02

    ------------------------------------------------
       NWT REQUIRED           48 OUTER ITERATIONS 
       AND A TOTAL OF        520 INNER ITERATIONS.
    ------------------------------------------------

 NO OUTPUT CONTROL FOR STRESS PERIOD    1   TIME STEP    1
1
  VOLUMETRIC BUDGET FOR UNSATURATED ZONE BENEATH STREAMS AT END OF TIME STEP     1 STRESS PERIOD   1
  ------------------------------------------------------------------------------------------------

    CUMULATIVE VOLUMES             L**3    RATES FOR THIS TIME STEP         L**3/T
    ------------------                     ------------------------


          STREAM LOSS =      1264829.1250            STREAM LOSS =        40800.9297
    CHANGE IN STORAGE =            0.0000      CHANGE IN STORAGE =            0.0000
       RECHARGE TO GW =      1264829.1250         RECHARGE TO GW =        40800.9297

             TOTAL IN =      1264829.1250               TOTAL IN =        40800.9297

            TOTAL OUT =      1264829.1250              TOTAL OUT =        40800.9297

             IN - OUT =            0.0000               IN - OUT =            0.0000

  PERCENT DISCREPANCY =            0.00      PERCENT DISCREPANCY =             0.00





UNSATURATED ZONE PACKAGE VOLUMETRIC BUDGET FOR  TIME STEP     1 STRESS PERIOD    1
  ------------------------------------------------------------------------------



     CUMULATIVE VOLUMES      L**3       RATES FOR THIS TIME STEP      L**3/T
     ------------------                 ------------------------

           IN:                                      IN:
           ---                                      ---
        INFILTRATION =    28632199.7153          INFILTRATION =      923619.3453

          OUT:                                     OUT:
          ----                                     ----
              UZF ET =       0.0000E+00                UZF ET =       0.0000E+00
        UZF RECHARGE =    28632199.7153          UZF RECHARGE =      923619.3453

            IN - OUT =       0.0000E+00              IN - OUT =       0.0000E+00

          STORAGE:                                 STORAGE:
          --------                                 --------
      STORAGE CHANGE =       0.0000E+00        STORAGE CHANGE =       0.0000E+00

 PERCENT DISCREPANCY IS DIFFERENCE BETWEEN IN-OUT MINUS CHANGE IN STORAGE
 DIVIDED BY THE AVERAGE OF IN AND OUT TIMES 100

 PERCENT DISCREPANCY =           0.00     PERCENT DISCREPANCY =           0.00






1
  VOLUMETRIC BUDGET FOR ENTIRE MODEL AT END OF TIME STEP    1, STRESS PERIOD   1
  ------------------------------------------------------------------------------

     CUMULATIVE VOLUMES      L**3       RATES FOR THIS TIME STEP      L**3/T
     ------------------                 ------------------------

           IN:                                      IN:
           ---                                      ---
             STORAGE =           0.0000               STORAGE =           0.0000
       CONSTANT HEAD =           0.0000         CONSTANT HEAD =           0.0000
      STREAM LEAKAGE =     7879800.5000        STREAM LEAKAGE =      254187.1094
        UZF RECHARGE =    28632168.0000          UZF RECHARGE =      923618.3125
               GW ET =           0.0000                 GW ET =           0.0000
     SURFACE LEAKAGE =           0.0000       SURFACE LEAKAGE =           0.0000

            TOTAL IN =    36511968.0000              TOTAL IN =     1177805.3750

          OUT:                                     OUT:
          ----                                     ----
             STORAGE =           0.0000               STORAGE =           0.0000
       CONSTANT HEAD =           0.0000         CONSTANT HEAD =           0.0000
      STREAM LEAKAGE =     9019279.0000        STREAM LEAKAGE =      290944.4688
        UZF RECHARGE =           0.0000          UZF RECHARGE =           0.0000
               GW ET =    26613098.0000                 GW ET =      858487.0625
     SURFACE LEAKAGE =      879997.3750       SURFACE LEAKAGE =       28387.0117

           TOTAL OUT =    36512372.0000             TOTAL OUT =     1177818.5000

            IN - OUT =        -404.0000              IN - OUT =         -13.1250

 PERCENT DISCREPANCY =          -0.00     PERCENT DISCREPANCY =          -0.00






         TIME SUMMARY AT END OF TIME STEP    1 IN STRESS PERIOD    1
                    SECONDS     MINUTES      HOURS       DAYS        YEARS
                    -----------------------------------------------------------
   TIME STEP LENGTH 2.67840E+06  44640.      744.00      31.000     8.48734E-02
 STRESS PERIOD TIME 2.67840E+06  44640.      744.00      31.000     8.48734E-02
         TOTAL TIME 2.67840E+06  44640.      744.00      31.000     8.48734E-02
1

 Run end date and time (yyyy/mm/dd hh:mm:ss): 2019/02/28 16:35:40
 Elapsed run time:  4.367 Seconds

