                                  MODFLOW-NWT-SWR1 
      U.S. GEOLOGICAL SURVEY MODULAR FINITE-DIFFERENCE GROUNDWATER-FLOW MODEL
                             VERSION 1.1.4 4/01/2018
                    BASED ON MODFLOW-2005 VERSION 1.12.00 02/03/2017

 LIST FILE: rr_ss.list
                         UNIT    2

 OPENING rr_ss.dis
 FILE TYPE:DIS   UNIT   11   STATUS:OLD    
 FORMAT:FORMATTED              ACCESS:SEQUENTIAL          

 OPENING rr_ss.bas
 FILE TYPE:BAS6   UNIT   13   STATUS:OLD    
 FORMAT:FORMATTED              ACCESS:SEQUENTIAL          

 OPENING rr_ss.upw
 FILE TYPE:UPW   UNIT   31   STATUS:OLD    
 FORMAT:FORMATTED              ACCESS:SEQUENTIAL          

 OPENING rr_ss.hfb
 FILE TYPE:HFB6   UNIT   29   STATUS:OLD    
 FORMAT:FORMATTED              ACCESS:SEQUENTIAL          

 OPENING rr_ss.sfr
 FILE TYPE:SFR   UNIT   17   STATUS:OLD    
 FORMAT:FORMATTED              ACCESS:SEQUENTIAL          

 OPENING rr_ss.uzf
 FILE TYPE:UZF   UNIT   19   STATUS:OLD    
 FORMAT:FORMATTED              ACCESS:SEQUENTIAL          

 OPENING rr_ss.lak
 FILE TYPE:LAK   UNIT  119   STATUS:OLD    
 FORMAT:FORMATTED              ACCESS:SEQUENTIAL          

 OPENING rr_ss.wel
 FILE TYPE:WEL   UNIT   20   STATUS:OLD    
 FORMAT:FORMATTED              ACCESS:SEQUENTIAL          

 OPENING rr_ss.hob
 FILE TYPE:HOB   UNIT   39   STATUS:OLD    
 FORMAT:FORMATTED              ACCESS:SEQUENTIAL          

 OPENING rr_ss.gage
 FILE TYPE:GAGE   UNIT  120   STATUS:OLD    
 FORMAT:FORMATTED              ACCESS:SEQUENTIAL          

 OPENING rr_ss.oc
 FILE TYPE:OC   UNIT   14   STATUS:OLD    
 FORMAT:FORMATTED              ACCESS:SEQUENTIAL          

 OPENING rr_ss.nwt
 FILE TYPE:NWT   UNIT   32   STATUS:OLD    
 FORMAT:FORMATTED              ACCESS:SEQUENTIAL          

 OPENING Meno_bathy.dat
 FILE TYPE:DATA   UNIT 1002   STATUS:UNKNOWN
 FORMAT:FORMATTED              ACCESS:SEQUENTIAL          

 OPENING Sonoma_bathy.dat
 FILE TYPE:DATA   UNIT 1003   STATUS:UNKNOWN
 FORMAT:FORMATTED              ACCESS:SEQUENTIAL          

 OPENING Bevans_bathy.dat
 FILE TYPE:DATA   UNIT 1004   STATUS:UNKNOWN
 FORMAT:FORMATTED              ACCESS:SEQUENTIAL          

 OPENING Lolonis_bathy_dat
 FILE TYPE:DATA   UNIT 1005   STATUS:UNKNOWN
 FORMAT:FORMATTED              ACCESS:SEQUENTIAL          

 OPENING Crawford_bathy.dat
 FILE TYPE:DATA   UNIT 1006   STATUS:UNKNOWN
 FORMAT:FORMATTED              ACCESS:SEQUENTIAL          

 OPENING Bradford_bathy.dat
 FILE TYPE:DATA   UNIT 1007   STATUS:UNKNOWN
 FORMAT:FORMATTED              ACCESS:SEQUENTIAL          

 OPENING Merlo_bathy.dat
 FILE TYPE:DATA   UNIT 1008   STATUS:UNKNOWN
 FORMAT:FORMATTED              ACCESS:SEQUENTIAL          

 OPENING CoenC3_bathy.dat
 FILE TYPE:DATA   UNIT 1009   STATUS:UNKNOWN
 FORMAT:FORMATTED              ACCESS:SEQUENTIAL          

 OPENING Murray_bathy.dat
 FILE TYPE:DATA   UNIT 1010   STATUS:UNKNOWN
 FORMAT:FORMATTED              ACCESS:SEQUENTIAL          

 OPENING Mallacomes_bathy.dat
 FILE TYPE:DATA   UNIT 1011   STATUS:UNKNOWN
 FORMAT:FORMATTED              ACCESS:SEQUENTIAL          

 OPENING Towibalyla_bathy.dat
 FILE TYPE:DATA   UNIT 1012   STATUS:UNKNOWN
 FORMAT:FORMATTED              ACCESS:SEQUENTIAL          

 OPENING pumping_reduction.wel.out
 FILE TYPE:DATA   UNIT 1013   STATUS:UNKNOWN
 FORMAT:FORMATTED              ACCESS:SEQUENTIAL          

 OPENING rr_ss.cbc
 FILE TYPE:DATA(BINARY)   UNIT   55   STATUS:REPLACE
 FORMAT:BINARY                 ACCESS:SEQUENTIAL          

 OPENING rr_ss.sfr.out
 FILE TYPE:DATA   UNIT   81   STATUS:UNKNOWN
 FORMAT:FORMATTED              ACCESS:SEQUENTIAL          

 OPENING rr_ss.uzf1001.out
 FILE TYPE:DATA   UNIT 1001   STATUS:UNKNOWN
 FORMAT:FORMATTED              ACCESS:SEQUENTIAL          

 OPENING rr_ss.hob.out
 FILE TYPE:DATA   UNIT 1014   STATUS:UNKNOWN
 FORMAT:FORMATTED              ACCESS:SEQUENTIAL          

 OPENING RUSSIAN_R_JOHNSONS_BEACH_GUERNEVILLE.go
 FILE TYPE:DATA   UNIT 1019   STATUS:UNKNOWN
 FORMAT:FORMATTED              ACCESS:SEQUENTIAL          

 OPENING AUSTIN_C_NR_CAZADERO.go
 FILE TYPE:DATA   UNIT 1020   STATUS:UNKNOWN
 FORMAT:FORMATTED              ACCESS:SEQUENTIAL          

 OPENING RUSSIAN_R_NR_GUERNEVILLE.go
 FILE TYPE:DATA   UNIT 1021   STATUS:UNKNOWN
 FORMAT:FORMATTED              ACCESS:SEQUENTIAL          

 OPENING RUSSIAN_R_NR_WINDSOR.go
 FILE TYPE:DATA   UNIT 1022   STATUS:UNKNOWN
 FORMAT:FORMATTED              ACCESS:SEQUENTIAL          

 OPENING DRY_C_NR_MOUTH_NR_HEALDSBURG.go
 FILE TYPE:DATA   UNIT 1023   STATUS:UNKNOWN
 FORMAT:FORMATTED              ACCESS:SEQUENTIAL          

 OPENING RUSSIAN_R_NR_HEALDSBURG.go
 FILE TYPE:DATA   UNIT 1024   STATUS:UNKNOWN
 FORMAT:FORMATTED              ACCESS:SEQUENTIAL          

 OPENING RUSSIAN_R_DIGGER_BEND_NR_HEALDSBURG.go
 FILE TYPE:DATA   UNIT 1025   STATUS:UNKNOWN
 FORMAT:FORMATTED              ACCESS:SEQUENTIAL          

 OPENING MAACAMA_C_NR_KELLOGG.go
 FILE TYPE:DATA   UNIT 1026   STATUS:UNKNOWN
 FORMAT:FORMATTED              ACCESS:SEQUENTIAL          

 OPENING DRY_C_BLW_LAMBERT_BR_NR_GEYSERVILLE.go
 FILE TYPE:DATA   UNIT 1027   STATUS:UNKNOWN
 FORMAT:FORMATTED              ACCESS:SEQUENTIAL          

 OPENING RUSSIAN_R_JIMTOWN.go
 FILE TYPE:DATA   UNIT 1028   STATUS:UNKNOWN
 FORMAT:FORMATTED              ACCESS:SEQUENTIAL          

 OPENING DRY_C_NR_GEYSERVILLE.go
 FILE TYPE:DATA   UNIT 1029   STATUS:UNKNOWN
 FORMAT:FORMATTED              ACCESS:SEQUENTIAL          

 OPENING RUSSIAN_R_GEYSERVILLE.go
 FILE TYPE:DATA   UNIT 1030   STATUS:UNKNOWN
 FORMAT:FORMATTED              ACCESS:SEQUENTIAL          

 OPENING BIG_SULPHUR_C_A_G_RESORT_NR_CLOVERDALE.go
 FILE TYPE:DATA   UNIT 1031   STATUS:UNKNOWN
 FORMAT:FORMATTED              ACCESS:SEQUENTIAL          

 OPENING BIG_SULPHUR_C_NR_CLOVERDALE.go
 FILE TYPE:DATA   UNIT 1032   STATUS:UNKNOWN
 FORMAT:FORMATTED              ACCESS:SEQUENTIAL          

 OPENING RUSSIAN_R_NR_CLOVERDALE.go
 FILE TYPE:DATA   UNIT 1033   STATUS:UNKNOWN
 FORMAT:FORMATTED              ACCESS:SEQUENTIAL          

 OPENING RUSSIAN_R_NR_HOPLAND.go
 FILE TYPE:DATA   UNIT 1034   STATUS:UNKNOWN
 FORMAT:FORMATTED              ACCESS:SEQUENTIAL          

 OPENING RUSSIAN_R_NR_TALMAG.go
 FILE TYPE:DATA   UNIT 1035   STATUS:UNKNOWN
 FORMAT:FORMATTED              ACCESS:SEQUENTIAL          

 OPENING RUSSIAN_R_NR_UKIAH.go
 FILE TYPE:DATA   UNIT 1036   STATUS:UNKNOWN
 FORMAT:FORMATTED              ACCESS:SEQUENTIAL          

 OPENING EF_RUSSIAN_R_NR_UKIAH.go
 FILE TYPE:DATA   UNIT 1037   STATUS:UNKNOWN
 FORMAT:FORMATTED              ACCESS:SEQUENTIAL          

 OPENING EF_RUSSIAN_R_NR_CALPELLA.go
 FILE TYPE:DATA   UNIT 1038   STATUS:UNKNOWN
 FORMAT:FORMATTED              ACCESS:SEQUENTIAL          

 OPENING mendo_lake_bdg.lak.out
 FILE TYPE:DATA   UNIT 1039   STATUS:UNKNOWN
 FORMAT:FORMATTED              ACCESS:SEQUENTIAL          

 OPENING sonoma_lake_bdg.lak.out
 FILE TYPE:DATA   UNIT 1040   STATUS:UNKNOWN
 FORMAT:FORMATTED              ACCESS:SEQUENTIAL          

 OPENING rr_ss.hds
 FILE TYPE:DATA(BINARY)   UNIT   51   STATUS:REPLACE
 FORMAT:BINARY                 ACCESS:SEQUENTIAL          

 BAS -- BASIC PACKAGE, VERSION 1.1.4, 4/01/2018 INPUT READ FROM UNIT   13
 
 MODFLOW was compiled using mixed precision
 Precision of REAL variables:           6
 Precision of DOUBLE PRECISION variables:          15

 DISCRETIZATION INPUT DATA READ FROM UNIT   11
 # DIS package for  MODFLOW-NWT, generated by Flopy.
    3 LAYERS       411 ROWS       253 COLUMNS
    1 STRESS PERIOD(S) IN SIMULATION
 MODEL TIME UNIT IS DAYS
 MODEL LENGTH UNIT IS METERS
  Confining bed flag for each layer:
   0   0   0

                     DELR =   300.000    

                     DELC =   300.000    



           TOP ELEVATION OF LAYER 1
 READING ON UNIT   11 WITH FORMAT: (253E15.6)          



             MODEL LAYER BOTTOM EL. FOR LAYER   1
 READING ON UNIT   11 WITH FORMAT: (253E15.6)          



             MODEL LAYER BOTTOM EL. FOR LAYER   2
 READING ON UNIT   11 WITH FORMAT: (253E15.6)          



             MODEL LAYER BOTTOM EL. FOR LAYER   3
 READING ON UNIT   11 WITH FORMAT: (253E15.6)          


 STRESS PERIOD     LENGTH       TIME STEPS     MULTIPLIER FOR DELT    SS FLAG
 ----------------------------------------------------------------------------
        1         1.000000          1                    1.000         SS

 STEADY-STATE SIMULATION



 
 # BAS6 package for  MODFLOW-NWT, generated by Flopy.                            
 THE FREE FORMAT OPTION HAS BEEN SELECTED



                     BOUNDARY ARRAY FOR LAYER   1
 READING ON UNIT   13 WITH FORMAT: (253I10)            



                     BOUNDARY ARRAY FOR LAYER   2
 READING ON UNIT   13 WITH FORMAT: (253I10)            



                     BOUNDARY ARRAY FOR LAYER   3
 READING ON UNIT   13 WITH FORMAT: (253I10)            

 AQUIFER HEAD WILL BE SET TO  -999.99     AT ALL NO-FLOW NODES (IBOUND=0).



                       INITIAL HEAD FOR LAYER   1
 READING ON UNIT   13 WITH FORMAT: (253E15.6)          



                       INITIAL HEAD FOR LAYER   2
 READING ON UNIT   13 WITH FORMAT: (253E15.6)          



                       INITIAL HEAD FOR LAYER   3
 READING ON UNIT   13 WITH FORMAT: (253E15.6)          
 # OC package for  MODFLOW-NWT, generated by Flopy.

 OUTPUT CONTROL IS SPECIFIED ONLY AT TIME STEPS FOR WHICH OUTPUT IS DESIRED
 COMPACT CELL-BY-CELL BUDGET FILES WILL BE WRITTEN
 AUXILIARY DATA WILL BE SAVED IN CELL-BY-CELL BUDGET FILES
 HEAD PRINT FORMAT CODE IS   0    DRAWDOWN PRINT FORMAT CODE IS   0
 HEADS WILL BE SAVED ON UNIT   51    DRAWDOWNS WILL BE SAVED ON UNIT    0
 # NWT package for  MODFLOW-NWT, generated by Flopy.

 NWT1 -- Newton Solver, VERSION 1.1.4, 4/01/2018
         INPUT READ FROM UNIT 32

 SPECIFIED OPTION:
 SOLVER INPUT VALUES ARE SPECIFIED BY USER
 ***XMD linear solver will be used***
 
   CONVERGENCE CRITERION OF   0.500000E-01 FOR HEAD SOLUTION
   AND A TOLERANCE OF   0.200000E+03 FOR FLOW SOLUTION AND 
   A MAXIMUM OF  1000 OUTER ITERATIONS. 


   D-B-D REDUCTION FACTOR OF    0.750000E+00 AND 
   A D-B-D INCREASE FACTOR OF    0.100000E-04 AND 
   A D-B-D RELAXATION OF    0.000000E+00 AND 
   A MOMENTUM FACTOR OF    0.100000E+00 .


   BACKTRACKING IS ACTIVE 
   THE MAXIMUM NUMBER OF BACKTRACKS IS    30 AND 
   THE BACKTRACKING TOLERANCE IS    0.105000E+01 AND
   THE BACKTRACKING REDUCTION FACTOR IS    0.900000E+00

 
 **Active cell surrounded by inactive cells**
 **Resetting cell to inactive**
 ROW=          63 COL=          64 LAY=           1
 
 
 **Active cell surrounded by inactive cells**
 **Resetting cell to inactive**
 ROW=          64 COL=          43 LAY=           1
 
 
 **Active cell surrounded by inactive cells**
 **Resetting cell to inactive**
 ROW=          65 COL=          66 LAY=           1
 
 
 **Active cell surrounded by inactive cells**
 **Resetting cell to inactive**
 ROW=         368 COL=         133 LAY=           2
 
 XMD -- LINEAR SOLUTION BY XMD PACKAGE VERSION 1.30
     BY MOTOMU IBARAKI, OHIO STATE UNIVERSITY, COLOMBUS, OH
                 INPUT READ FROM UNIT 32
 ACCELERATION METHOD                    (IACL) =         2
 NODE ORDERING FLAG                   (NORDER) =         0
 LEVEL OF FILL                         (LEVEL) =         7
 MAXIMUM NUMBER OF ORTHOGONALIZATIONS  (NORTH) =         7
 INDEX FOR USING REDUCED SYSTEM      (IREDSYS) =         0
 RESID. REDUCTION CONVERGE CRITERION  (RRCTOL) =  0.000000E+00
 INDEX FOR USING DROP TOLERANCE     (IDROPTOL) =         1
 DROP TOLERANCE VALUE                  (EPSRN) =  0.100000E-02
 CONVERGENCE CRITERIA OF           (HCLOSEXMD) =  0.150000E-03
 MAX. NUMBER OF LINEAR ITERATIONS  (MXITERXMD) =       200


 UPW1 -- UPSTREAM WEIGHTING FLOW PACKAGE, VERSION 1.1.4, 4/01/2018
         INPUT READ FROM UNIT 31

 # UPW package for  MODFLOW-NWT, generated by Flopy.
 No named parameters

   LAYER FLAGS:
 LAYER       LAYTYP          LAYAVG    CHANI           LAYVKA           LAYWET
 ---------------------------------------------------------------------------
    1             1             0     1.000E+00             0             0
    2             1             0     1.000E+00             0             0
    3             1             0     1.000E+00             0             0

   INTERPRETATION OF LAYER FLAGS:
                        INTERBLOCK     HORIZONTAL    DATA IN
         LAYER TYPE   TRANSMISSIVITY   ANISOTROPY   ARRAY VKA   WETTABILITY
 LAYER   (LAYTYP)        (LAYAVG)      (CHANI)     (LAYVKA)       (LAYWET)
 ---------------------------------------------------------------------------
    1   CONVERTIBLE      HARMONIC     1.000E+00    VERTICAL K  NON-WETTABLE
    2   CONVERTIBLE      HARMONIC     1.000E+00    VERTICAL K  NON-WETTABLE
    3   CONVERTIBLE      HARMONIC     1.000E+00    VERTICAL K  NON-WETTABLE



              HYD. COND. ALONG ROWS FOR LAYER   1
 READING ON UNIT   31 WITH FORMAT: (253E15.6)          



                VERTICAL HYD. COND. FOR LAYER   1
 READING ON UNIT   31 WITH FORMAT: (253E15.6)          



              HYD. COND. ALONG ROWS FOR LAYER   2
 READING ON UNIT   31 WITH FORMAT: (253E15.6)          



                VERTICAL HYD. COND. FOR LAYER   2
 READING ON UNIT   31 WITH FORMAT: (253E15.6)          



              HYD. COND. ALONG ROWS FOR LAYER   3
 READING ON UNIT   31 WITH FORMAT: (253E15.6)          



                VERTICAL HYD. COND. FOR LAYER   3
 READING ON UNIT   31 WITH FORMAT: (253E15.6)          
 NODE (LAYER,ROW,COL)   1    70    46 ELIMINATED BECAUSE ALL HYDRAULIC
 CONDUCTIVITIES TO NODE ARE 0
 NODE (LAYER,ROW,COL)   1    85    71 ELIMINATED BECAUSE ALL HYDRAULIC
 CONDUCTIVITIES TO NODE ARE 0
 NODE (LAYER,ROW,COL)   1    86    70 ELIMINATED BECAUSE ALL HYDRAULIC
 CONDUCTIVITIES TO NODE ARE 0
 NODE (LAYER,ROW,COL)   1    87    69 ELIMINATED BECAUSE ALL HYDRAULIC
 CONDUCTIVITIES TO NODE ARE 0
 NODE (LAYER,ROW,COL)   1    89    64 ELIMINATED BECAUSE ALL HYDRAULIC
 CONDUCTIVITIES TO NODE ARE 0
 NODE (LAYER,ROW,COL)   1    89    65 ELIMINATED BECAUSE ALL HYDRAULIC
 CONDUCTIVITIES TO NODE ARE 0
 NODE (LAYER,ROW,COL)   1    98    69 ELIMINATED BECAUSE ALL HYDRAULIC
 CONDUCTIVITIES TO NODE ARE 0
 NODE (LAYER,ROW,COL)   1   100    68 ELIMINATED BECAUSE ALL HYDRAULIC
 CONDUCTIVITIES TO NODE ARE 0
 NODE (LAYER,ROW,COL)   1   100    69 ELIMINATED BECAUSE ALL HYDRAULIC
 CONDUCTIVITIES TO NODE ARE 0
 NODE (LAYER,ROW,COL)   3   303   159 ELIMINATED BECAUSE ALL HYDRAULIC
 CONDUCTIVITIES TO NODE ARE 0
 NODE (LAYER,ROW,COL)   3   303   160 ELIMINATED BECAUSE ALL HYDRAULIC
 CONDUCTIVITIES TO NODE ARE 0
 NODE (LAYER,ROW,COL)   3   303   161 ELIMINATED BECAUSE ALL HYDRAULIC
 CONDUCTIVITIES TO NODE ARE 0
 NODE (LAYER,ROW,COL)   3   304   159 ELIMINATED BECAUSE ALL HYDRAULIC
 CONDUCTIVITIES TO NODE ARE 0
 NODE (LAYER,ROW,COL)   3   304   160 ELIMINATED BECAUSE ALL HYDRAULIC
 CONDUCTIVITIES TO NODE ARE 0
 NODE (LAYER,ROW,COL)   3   304   161 ELIMINATED BECAUSE ALL HYDRAULIC
 CONDUCTIVITIES TO NODE ARE 0
 NODE (LAYER,ROW,COL)   3   305   159 ELIMINATED BECAUSE ALL HYDRAULIC
 CONDUCTIVITIES TO NODE ARE 0
 NODE (LAYER,ROW,COL)   3   305   160 ELIMINATED BECAUSE ALL HYDRAULIC
 CONDUCTIVITIES TO NODE ARE 0
 NODE (LAYER,ROW,COL)   3   305   161 ELIMINATED BECAUSE ALL HYDRAULIC
 CONDUCTIVITIES TO NODE ARE 0
 NODE (LAYER,ROW,COL)   3   305   163 ELIMINATED BECAUSE ALL HYDRAULIC
 CONDUCTIVITIES TO NODE ARE 0
 NODE (LAYER,ROW,COL)   3   305   164 ELIMINATED BECAUSE ALL HYDRAULIC
 CONDUCTIVITIES TO NODE ARE 0
 NODE (LAYER,ROW,COL)   3   305   165 ELIMINATED BECAUSE ALL HYDRAULIC
 CONDUCTIVITIES TO NODE ARE 0
 NODE (LAYER,ROW,COL)   3   306   159 ELIMINATED BECAUSE ALL HYDRAULIC
 CONDUCTIVITIES TO NODE ARE 0
 NODE (LAYER,ROW,COL)   3   306   160 ELIMINATED BECAUSE ALL HYDRAULIC
 CONDUCTIVITIES TO NODE ARE 0
 NODE (LAYER,ROW,COL)   3   306   161 ELIMINATED BECAUSE ALL HYDRAULIC
 CONDUCTIVITIES TO NODE ARE 0
 NODE (LAYER,ROW,COL)   3   306   162 ELIMINATED BECAUSE ALL HYDRAULIC
 CONDUCTIVITIES TO NODE ARE 0
 NODE (LAYER,ROW,COL)   3   306   163 ELIMINATED BECAUSE ALL HYDRAULIC
 CONDUCTIVITIES TO NODE ARE 0
 NODE (LAYER,ROW,COL)   3   306   164 ELIMINATED BECAUSE ALL HYDRAULIC
 CONDUCTIVITIES TO NODE ARE 0
 NODE (LAYER,ROW,COL)   3   306   165 ELIMINATED BECAUSE ALL HYDRAULIC
 CONDUCTIVITIES TO NODE ARE 0
 NODE (LAYER,ROW,COL)   3   307   160 ELIMINATED BECAUSE ALL HYDRAULIC
 CONDUCTIVITIES TO NODE ARE 0
 NODE (LAYER,ROW,COL)   3   307   161 ELIMINATED BECAUSE ALL HYDRAULIC
 CONDUCTIVITIES TO NODE ARE 0
 NODE (LAYER,ROW,COL)   3   307   162 ELIMINATED BECAUSE ALL HYDRAULIC
 CONDUCTIVITIES TO NODE ARE 0
 NODE (LAYER,ROW,COL)   3   307   163 ELIMINATED BECAUSE ALL HYDRAULIC
 CONDUCTIVITIES TO NODE ARE 0
 NODE (LAYER,ROW,COL)   3   307   164 ELIMINATED BECAUSE ALL HYDRAULIC
 CONDUCTIVITIES TO NODE ARE 0
 NODE (LAYER,ROW,COL)   3   307   165 ELIMINATED BECAUSE ALL HYDRAULIC
 CONDUCTIVITIES TO NODE ARE 0
 NODE (LAYER,ROW,COL)   3   308   159 ELIMINATED BECAUSE ALL HYDRAULIC
 CONDUCTIVITIES TO NODE ARE 0
 NODE (LAYER,ROW,COL)   3   308   160 ELIMINATED BECAUSE ALL HYDRAULIC
 CONDUCTIVITIES TO NODE ARE 0
 NODE (LAYER,ROW,COL)   3   308   161 ELIMINATED BECAUSE ALL HYDRAULIC
 CONDUCTIVITIES TO NODE ARE 0
 NODE (LAYER,ROW,COL)   3   308   162 ELIMINATED BECAUSE ALL HYDRAULIC
 CONDUCTIVITIES TO NODE ARE 0
 NODE (LAYER,ROW,COL)   3   308   163 ELIMINATED BECAUSE ALL HYDRAULIC
 CONDUCTIVITIES TO NODE ARE 0
 NODE (LAYER,ROW,COL)   3   308   164 ELIMINATED BECAUSE ALL HYDRAULIC
 CONDUCTIVITIES TO NODE ARE 0
 NODE (LAYER,ROW,COL)   3   309   159 ELIMINATED BECAUSE ALL HYDRAULIC
 CONDUCTIVITIES TO NODE ARE 0
 NODE (LAYER,ROW,COL)   3   309   160 ELIMINATED BECAUSE ALL HYDRAULIC
 CONDUCTIVITIES TO NODE ARE 0
 NODE (LAYER,ROW,COL)   3   309   161 ELIMINATED BECAUSE ALL HYDRAULIC
 CONDUCTIVITIES TO NODE ARE 0
 NODE (LAYER,ROW,COL)   3   309   162 ELIMINATED BECAUSE ALL HYDRAULIC
 CONDUCTIVITIES TO NODE ARE 0
 NODE (LAYER,ROW,COL)   3   309   163 ELIMINATED BECAUSE ALL HYDRAULIC
 CONDUCTIVITIES TO NODE ARE 0
 NODE (LAYER,ROW,COL)   3   310   160 ELIMINATED BECAUSE ALL HYDRAULIC
 CONDUCTIVITIES TO NODE ARE 0
 NODE (LAYER,ROW,COL)   3   310   161 ELIMINATED BECAUSE ALL HYDRAULIC
 CONDUCTIVITIES TO NODE ARE 0
 NODE (LAYER,ROW,COL)   3   310   162 ELIMINATED BECAUSE ALL HYDRAULIC
 CONDUCTIVITIES TO NODE ARE 0
 NODE (LAYER,ROW,COL)   3   310   163 ELIMINATED BECAUSE ALL HYDRAULIC
 CONDUCTIVITIES TO NODE ARE 0
 NODE (LAYER,ROW,COL)   3   311   160 ELIMINATED BECAUSE ALL HYDRAULIC
 CONDUCTIVITIES TO NODE ARE 0
 NODE (LAYER,ROW,COL)   3   311   161 ELIMINATED BECAUSE ALL HYDRAULIC
 CONDUCTIVITIES TO NODE ARE 0
 NODE (LAYER,ROW,COL)   3   311   162 ELIMINATED BECAUSE ALL HYDRAULIC
 CONDUCTIVITIES TO NODE ARE 0
 NODE (LAYER,ROW,COL)   3   311   163 ELIMINATED BECAUSE ALL HYDRAULIC
 CONDUCTIVITIES TO NODE ARE 0
 NODE (LAYER,ROW,COL)   3   355    77 ELIMINATED BECAUSE ALL HYDRAULIC
 CONDUCTIVITIES TO NODE ARE 0

 WEL -- WELL PACKAGE FOR NWT VERSION 1.1.4,  4/01/2018 INPUT READ FROM UNIT   20
 # WEL package for  MODFLOW-NWT, generated by Flopy.
 No named parameters

 PROCESSING WELL OPTIONS
 
 NEGATIVE PUMPING RATES WILL BE REDUCED IF HEAD 
 FALLS WITHIN THE INTERVAL PHIRAMP TIMES THE CELL 
 THICKNESS. THE VALUE SPECIFIED FOR PHIRAMP IS  0.10000E+00
 WELLS WITH REDUCED PUMPING WILL BE REPORTED TO FILE UNIT NUMBER 1013

 END PROCESSING WELL OPTIONS
 MAXIMUM OF    434 ACTIVE WELLS AT ONE TIME
 No named parameters


     0 Well parameters

 HFB -- HORIZONTAL-FLOW BARRIER PACKAGE, NWT VERSION 1.1.4, 4/01/2018.
   INPUT READ FROM UNIT   29
 # HFB6 package for  MODFLOW-NWT, generated by Flopy.
     0 PARAMETERS DEFINE A MAXIMUM OF      0 HORIZONTAL FLOW BARRIERS
   2103 HORIZONTAL FLOW BARRIERS NOT DEFINED BY PARAMETERS


     0 HFB parameters

   2103 BARRIERS NOT DEFINED BY PARAMETERS

 BARRIER  LAYER  IROW1  ICOL1  IROW2  ICOL2    HYDCHR
 -------------------------------------------------------
      1      1     244    116    244    115    10.00    
      2      2     244    116    244    115    10.00    
      3      3     244    116    244    115    10.00    
      4      1     245    116    244    116    10.00    
      5      2     245    116    244    116    10.00    
      6      3     245    116    244    116    10.00    
      7      1     245    117    245    116    10.00    
      8      2     245    117    245    116    10.00    
      9      3     245    117    245    116    10.00    
     10      1     246    117    245    117    10.00    
     11      2     246    117    245    117    10.00    
     12      3     246    117    245    117    10.00    
     13      1     246    118    246    117    10.00    
     14      2     246    118    246    117    10.00    
     15      3     246    118    246    117    10.00    
     16      1     247    118    247    117    10.00    
     17      2     247    118    247    117    10.00    
     18      3     247    118    247    117    10.00    
     19      1     248    118    247    118    10.00    
     20      2     248    118    247    118    10.00    
     21      3     248    118    247    118    10.00    
     22      1     248    119    248    118    10.00    
     23      2     248    119    248    118    10.00    
     24      3     248    119    248    118    10.00    
     25      1     249    119    248    119    10.00    
     26      2     249    119    248    119    10.00    
     27      3     249    119    248    119    10.00    
     28      1     249    120    249    119    10.00    
     29      2     249    120    249    119    10.00    
     30      3     249    120    249    119    10.00    
     31      1     250    120    250    119    10.00    
     32      2     250    120    250    119    10.00    
     33      3     250    120    250    119    10.00    
     34      1     251    120    250    120    10.00    
     35      2     251    120    250    120    10.00    
     36      3     251    120    250    120    10.00    
     37      1     251    121    251    120    10.00    
     38      2     251    121    251    120    10.00    
     39      3     251    121    251    120    10.00    
     40      1     252    121    251    121    10.00    
     41      2     252    121    251    121    10.00    
     42      3     252    121    251    121    10.00    
     43      1     252    122    252    121    10.00    
     44      2     252    122    252    121    10.00    
     45      3     252    122    252    121    10.00    
     46      1     253    122    253    121    10.00    
     47      2     253    122    253    121    10.00    
     48      3     253    122    253    121    10.00    
     49      1     254    122    253    122    10.00    
     50      2     254    122    253    122    10.00    
     51      3     254    122    253    122    10.00    
     52      1     254    123    254    122    10.00    
     53      2     254    123    254    122    10.00    
     54      3     254    123    254    122    10.00    
     55      1     255    123    254    123    10.00    
     56      2     255    123    254    123    10.00    
     57      3     255    123    254    123    10.00    
     58      1     255    124    255    123    10.00    
     59      2     255    124    255    123    10.00    
     60      3     255    124    255    123    10.00    
     61      1     256    124    256    123    10.00    
     62      2     256    124    256    123    10.00    
     63      3     256    124    256    123    10.00    
     64      1     257    124    256    124    10.00    
     65      2     257    124    256    124    10.00    
     66      3     257    124    256    124    10.00    
     67      1     257    125    257    124    10.00    
     68      2     257    125    257    124    10.00    
     69      3     257    125    257    124    10.00    
     70      1     258    125    257    125    10.00    
     71      2     258    125    257    125    10.00    
     72      3     258    125    257    125    10.00    
     73      1     258    126    258    125    10.00    
     74      2     258    126    258    125    10.00    
     75      3     258    126    258    125    10.00    
     76      1     259    126    258    126    10.00    
     77      2     259    126    258    126    10.00    
     78      3     259    126    258    126    10.00    
     79      1     259    127    259    126    10.00    
     80      2     259    127    259    126    10.00    
     81      3     259    127    259    126    10.00    
     82      1     260    127    259    127    10.00    
     83      2     260    127    259    127    10.00    
     84      3     260    127    259    127    10.00    
     85      1     260    128    260    127    10.00    
     86      2     260    128    260    127    10.00    
     87      3     260    128    260    127    10.00    
     88      1     261    128    260    128    10.00    
     89      2     261    128    260    128    10.00    
     90      3     261    128    260    128    10.00    
     91      1     261    129    261    128    10.00    
     92      2     261    129    261    128    10.00    
     93      3     261    129    261    128    10.00    
     94      1     262    129    261    129    10.00    
     95      2     262    129    261    129    10.00    
     96      3     262    129    261    129    10.00    
     97      1     262    130    262    129    10.00    
     98      2     262    130    262    129    10.00    
     99      3     262    130    262    129    10.00    
    100      1     263    127    263    126    10.00    
    101      2     263    127    263    126    10.00    
    102      3     263    127    263    126    10.00    
    103      1     263    130    262    130    10.00    
    104      2     263    130    262    130    10.00    
    105      3     263    130    262    130    10.00    
    106      1     263    131    263    130    10.00    
    107      2     263    131    263    130    10.00    
    108      3     263    131    263    130    10.00    
    109      1     264    127    263    127    10.00    
    110      2     264    127    263    127    10.00    
    111      3     264    127    263    127    10.00    
    112      1     264    128    264    127    10.00    
    113      2     264    128    264    127    10.00    
    114      3     264    128    264    127    10.00    
    115      1     264    131    263    131    10.00    
    116      2     264    131    263    131    10.00    
    117      3     264    131    263    131    10.00    
    118      1     264    132    264    131    10.00    
    119      2     264    132    264    131    10.00    
    120      3     264    132    264    131    10.00    
    121      1     264    135    263    135    10.00    
    122      2     264    135    263    135    10.00    
    123      3     264    135    263    135    10.00    
    124      1     264    136    264    135    10.00    
    125      2     264    136    264    135    10.00    
    126      3     264    136    264    135    10.00    
    127      1     265    128    264    128    10.00    
    128      2     265    128    264    128    10.00    
    129      3     265    128    264    128    10.00    
    130      1     265    129    265    128    10.00    
    131      2     265    129    265    128    10.00    
    132      3     265    129    265    128    10.00    
    133      1     265    132    264    132    10.00    
    134      2     265    132    264    132    10.00    
    135      3     265    132    264    132    10.00    
    136      1     265    133    265    132    10.00    
    137      2     265    133    265    132    10.00    
    138      3     265    133    265    132    10.00    
    139      1     265    136    264    136    10.00    
    140      2     265    136    264    136    10.00    
    141      3     265    136    264    136    10.00    
    142      1     265    137    264    137    10.00    
    143      2     265    137    264    137    10.00    
    144      3     265    137    264    137    10.00    
    145      1     265    138    265    137    10.00    
    146      2     265    138    265    137    10.00    
    147      3     265    138    265    137    10.00    
    148      1     266    129    266    128    10.00    
    149      2     266    129    266    128    10.00    
    150      3     266    129    266    128    10.00    
    151      1     266    133    265    133    10.00    
    152      2     266    133    265    133    10.00    
    153      3     266    133    265    133    10.00    
    154      1     266    134    266    133    10.00    
    155      2     266    134    266    133    10.00    
    156      3     266    134    266    133    10.00    
    157      1     266    138    265    138    10.00    
    158      2     266    138    265    138    10.00    
    159      3     266    138    265    138    10.00    
    160      1     266    139    265    139    10.00    
    161      2     266    139    265    139    10.00    
    162      3     266    139    265    139    10.00    
    163      1     266    140    266    139    10.00    
    164      2     266    140    266    139    10.00    
    165      3     266    140    266    139    10.00    
    166      1     267    129    266    129    10.00    
    167      2     267    129    266    129    10.00    
    168      3     267    129    266    129    10.00    
    169      1     267    130    267    129    10.00    
    170      2     267    130    267    129    10.00    
    171      3     267    130    267    129    10.00    
    172      1     267    134    266    134    10.00    
    173      2     267    134    266    134    10.00    
    174      3     267    134    266    134    10.00    
    175      1     267    135    267    134    10.00    
    176      2     267    135    267    134    10.00    
    177      3     267    135    267    134    10.00    
    178      1     267    140    266    140    10.00    
    179      2     267    140    266    140    10.00    
    180      3     267    140    266    140    10.00    
    181      1     267    141    267    140    10.00    
    182      2     267    141    267    140    10.00    
    183      3     267    141    267    140    10.00    
    184      1     268    130    267    130    10.00    
    185      2     268    130    267    130    10.00    
    186      3     268    130    267    130    10.00    
    187      1     268    131    268    130    10.00    
    188      2     268    131    268    130    10.00    
    189      3     268    131    268    130    10.00    
    190      1     268    135    267    135    10.00    
    191      2     268    135    267    135    10.00    
    192      3     268    135    267    135    10.00    
    193      1     268    136    268    135    10.00    
    194      2     268    136    268    135    10.00    
    195      3     268    136    268    135    10.00    
    196      1     268    141    267    141    10.00    
    197      2     268    141    267    141    10.00    
    198      3     268    141    267    141    10.00    
    199      1     268    142    268    141    10.00    
    200      2     268    142    268    141    10.00    
    201      3     268    142    268    141    10.00    
    202      1     269    136    268    136    10.00    
    203      2     269    136    268    136    10.00    
    204      3     269    136    268    136    10.00    
    205      1     269    137    269    136    10.00    
    206      2     269    137    269    136    10.00    
    207      3     269    137    269    136    10.00    
    208      1     269    142    268    142    10.00    
    209      2     269    142    268    142    10.00    
    210      3     269    142    268    142    10.00    
    211      1     269    143    269    142    10.00    
    212      2     269    143    269    142    10.00    
    213      3     269    143    269    142    10.00    
    214      1     270    137    269    137    10.00    
    215      2     270    137    269    137    10.00    
    216      3     270    137    269    137    10.00    
    217      1     270    138    270    137    10.00    
    218      2     270    138    270    137    10.00    
    219      3     270    138    270    137    10.00    
    220      1     270    143    269    143    10.00    
    221      2     270    143    269    143    10.00    
    222      3     270    143    269    143    10.00    
    223      1     270    144    270    143    10.00    
    224      2     270    144    270    143    10.00    
    225      3     270    144    270    143    10.00    
    226      1     271    133    270    133    10.00    
    227      2     271    133    270    133    10.00    
    228      3     271    133    270    133    10.00    
    229      1     271    134    271    133    10.00    
    230      2     271    134    271    133    10.00    
    231      3     271    134    271    133    10.00    
    232      1     271    138    270    138    10.00    
    233      2     271    138    270    138    10.00    
    234      3     271    138    270    138    10.00    
    235      1     271    139    271    138    10.00    
    236      2     271    139    271    138    10.00    
    237      3     271    139    271    138    10.00    
    238      1     271    144    270    144    10.00    
    239      2     271    144    270    144    10.00    
    240      3     271    144    270    144    10.00    
    241      1     271    145    271    144    10.00    
    242      2     271    145    271    144    10.00    
    243      3     271    145    271    144    10.00    
    244      1     272    134    272    133    10.00    
    245      2     272    134    272    133    10.00    
    246      3     272    134    272    133    10.00    
    247      1     272    139    271    139    10.00    
    248      2     272    139    271    139    10.00    
    249      3     272    139    271    139    10.00    
    250      1     272    140    272    139    10.00    
    251      2     272    140    272    139    10.00    
    252      3     272    140    272    139    10.00    
    253      1     272    145    271    145    10.00    
    254      2     272    145    271    145    10.00    
    255      3     272    145    271    145    10.00    
    256      1     272    146    272    145    10.00    
    257      2     272    146    272    145    10.00    
    258      3     272    146    272    145    10.00    
    259      1     273    134    272    134    10.00    
    260      2     273    134    272    134    10.00    
    261      3     273    134    272    134    10.00    
    262      1     273    135    273    134    10.00    
    263      2     273    135    273    134    10.00    
    264      3     273    135    273    134    10.00    
    265      1     273    140    272    140    10.00    
    266      2     273    140    272    140    10.00    
    267      3     273    140    272    140    10.00    
    268      1     273    141    273    140    10.00    
    269      2     273    141    273    140    10.00    
    270      3     273    141    273    140    10.00    
    271      1     273    146    272    146    10.00    
    272      2     273    146    272    146    10.00    
    273      3     273    146    272    146    10.00    
    274      1     273    147    273    146    10.00    
    275      2     273    147    273    146    10.00    
    276      3     273    147    273    146    10.00    
    277      1     274    135    274    134    10.00    
    278      2     274    135    274    134    10.00    
    279      3     274    135    274    134    10.00    
    280      1     274    141    273    141    10.00    
    281      2     274    141    273    141    10.00    
    282      3     274    141    273    141    10.00    
    283      1     274    142    273    142    10.00    
    284      2     274    142    273    142    10.00    
    285      3     274    142    273    142    10.00    
    286      1     274    143    274    142    10.00    
    287      2     274    143    274    142    10.00    
    288      3     274    143    274    142    10.00    
    289      1     274    147    274    146    10.00    
    290      2     274    147    274    146    10.00    
    291      3     274    147    274    146    10.00    
    292      1     275    135    274    135    10.00    
    293      2     275    135    274    135    10.00    
    294      3     275    135    274    135    10.00    
    295      1     275    136    275    135    10.00    
    296      2     275    136    275    135    10.00    
    297      3     275    136    275    135    10.00    
    298      1     275    143    274    143    10.00    
    299      2     275    143    274    143    10.00    
    300      3     275    143    274    143    10.00    
    301      1     275    144    275    143    10.00    
    302      2     275    144    275    143    10.00    
    303      3     275    144    275    143    10.00    
    304      1     275    147    274    147    10.00    
    305      2     275    147    274    147    10.00    
    306      3     275    147    274    147    10.00    
    307      1     275    148    275    147    10.00    
    308      2     275    148    275    147    10.00    
    309      3     275    148    275    147    10.00    
    310      1     276    136    276    135    10.00    
    311      2     276    136    276    135    10.00    
    312      3     276    136    276    135    10.00    
    313      1     276    144    275    144    10.00    
    314      2     276    144    275    144    10.00    
    315      3     276    144    275    144    10.00    
    316      1     276    145    276    144    10.00    
    317      2     276    145    276    144    10.00    
    318      3     276    145    276    144    10.00    
    319      1     276    148    275    148    10.00    
    320      2     276    148    275    148    10.00    
    321      3     276    148    275    148    10.00    
    322      1     276    149    276    148    10.00    
    323      2     276    149    276    148    10.00    
    324      3     276    149    276    148    10.00    
    325      1     277    136    276    136    10.00    
    326      2     277    136    276    136    10.00    
    327      3     277    136    276    136    10.00    
    328      1     277    137    277    136    10.00    
    329      2     277    137    277    136    10.00    
    330      3     277    137    277    136    10.00    
    331      1     277    145    276    145    10.00    
    332      2     277    145    276    145    10.00    
    333      3     277    145    276    145    10.00    
    334      1     277    146    277    145    10.00    
    335      2     277    146    277    145    10.00    
    336      3     277    146    277    145    10.00    
    337      1     277    149    276    149    10.00    
    338      2     277    149    276    149    10.00    
    339      3     277    149    276    149    10.00    
    340      1     277    150    277    149    10.00    
    341      2     277    150    277    149    10.00    
    342      3     277    150    277    149    10.00    
    343      1     278    137    277    137    10.00    
    344      2     278    137    277    137    10.00    
    345      3     278    137    277    137    10.00    
    346      1     278    138    278    137    10.00    
    347      2     278    138    278    137    10.00    
    348      3     278    138    278    137    10.00    
    349      1     278    146    277    146    10.00    
    350      2     278    146    277    146    10.00    
    351      3     278    146    277    146    10.00    
    352      1     278    147    277    147    10.00    
    353      2     278    147    277    147    10.00    
    354      3     278    147    277    147    10.00    
    355      1     278    148    278    147    10.00    
    356      2     278    148    278    147    10.00    
    357      3     278    148    278    147    10.00    
    358      1     278    150    277    150    10.00    
    359      2     278    150    277    150    10.00    
    360      3     278    150    277    150    10.00    
    361      1     278    151    278    150    10.00    
    362      2     278    151    278    150    10.00    
    363      3     278    151    278    150    10.00    
    364      1     279    138    278    138    10.00    
    365      2     279    138    278    138    10.00    
    366      3     279    138    278    138    10.00    
    367      1     279    139    279    138    10.00    
    368      2     279    139    279    138    10.00    
    369      3     279    139    279    138    10.00    
    370      1     279    148    278    148    10.00    
    371      2     279    148    278    148    10.00    
    372      3     279    148    278    148    10.00    
    373      1     279    149    279    148    10.00    
    374      2     279    149    279    148    10.00    
    375      3     279    149    279    148    10.00    
    376      1     279    151    279    150    10.00    
    377      2     279    151    279    150    10.00    
    378      3     279    151    279    150    10.00    
    379      1     280    149    279    149    10.00    
    380      2     280    149    279    149    10.00    
    381      3     280    149    279    149    10.00    
    382      1     280    150    280    149    10.00    
    383      2     280    150    280    149    10.00    
    384      3     280    150    280    149    10.00    
    385      1     280    151    279    151    10.00    
    386      2     280    151    279    151    10.00    
    387      3     280    151    279    151    10.00    
    388      1     280    152    280    151    10.00    
    389      2     280    152    280    151    10.00    
    390      3     280    152    280    151    10.00    
    391      1     281    150    280    150    10.00    
    392      2     281    150    280    150    10.00    
    393      3     281    150    280    150    10.00    
    394      1     281    152    281    151    10.00    
    395      2     281    152    281    151    10.00    
    396      3     281    152    281    151    10.00    
    397      1     282    152    281    152    10.00    
    398      2     282    152    281    152    10.00    
    399      3     282    152    281    152    10.00    
    400      1     282    153    282    152    10.00    
    401      2     282    153    282    152    10.00    
    402      3     282    153    282    152    10.00    
    403      1     283    153    283    152    10.00    
    404      2     283    153    283    152    10.00    
    405      3     283    153    283    152    10.00    
    406      1     284    153    283    153    10.00    
    407      2     284    153    283    153    10.00    
    408      3     284    153    283    153    10.00    
    409      1     284    154    284    153    10.00    
    410      2     284    154    284    153    10.00    
    411      3     284    154    284    153    10.00    
    412      1     285    154    284    154    10.00    
    413      2     285    154    284    154    10.00    
    414      3     285    154    284    154    10.00    
    415      1     285    155    285    154    10.00    
    416      2     285    155    285    154    10.00    
    417      3     285    155    285    154    10.00    
    418      1     286    155    286    154    10.00    
    419      2     286    155    286    154    10.00    
    420      3     286    155    286    154    10.00    
    421      1     287    155    286    155    10.00    
    422      2     287    155    286    155    10.00    
    423      3     287    155    286    155    10.00    
    424      1     287    156    287    155    10.00    
    425      2     287    156    287    155    10.00    
    426      3     287    156    287    155    10.00    
    427      1     288    156    287    156    10.00    
    428      2     288    156    287    156    10.00    
    429      3     288    156    287    156    10.00    
    430      1     288    157    288    156    10.00    
    431      2     288    157    288    156    10.00    
    432      3     288    157    288    156    10.00    
    433      1     289    157    288    157    10.00    
    434      2     289    157    288    157    10.00    
    435      3     289    157    288    157    10.00    
    436      1     289    158    289    157    10.00    
    437      2     289    158    289    157    10.00    
    438      3     289    158    289    157    10.00    
    439      1     290    158    289    158    10.00    
    440      2     290    158    289    158    10.00    
    441      3     290    158    289    158    10.00    
    442      1     290    159    290    158    10.00    
    443      2     290    159    290    158    10.00    
    444      3     290    159    290    158    10.00    
    445      1     291    159    291    158    10.00    
    446      2     291    159    291    158    10.00    
    447      3     291    159    291    158    10.00    
    448      1     292    159    291    159    10.00    
    449      2     292    159    291    159    10.00    
    450      3     292    159    291    159    10.00    
    451      1     292    160    292    159    10.00    
    452      2     292    160    292    159    10.00    
    453      3     292    160    292    159    10.00    
    454      1     293    160    292    160    10.00    
    455      2     293    160    292    160    10.00    
    456      3     293    160    292    160    10.00    
    457      1     293    161    293    160    10.00    
    458      2     293    161    293    160    10.00    
    459      3     293    161    293    160    10.00    
    460      1     294    161    293    161    10.00    
    461      2     294    161    293    161    10.00    
    462      3     294    161    293    161    10.00    
    463      1     294    162    294    161    10.00    
    464      2     294    162    294    161    10.00    
    465      3     294    162    294    161    10.00    
    466      1     295    162    294    162    10.00    
    467      2     295    162    294    162    10.00    
    468      3     295    162    294    162    10.00    
    469      1     295    163    295    162    10.00    
    470      2     295    163    295    162    10.00    
    471      3     295    163    295    162    10.00    
    472      1     296    163    295    163    10.00    
    473      2     296    163    295    163    10.00    
    474      3     296    163    295    163    10.00    
    475      1     296    164    296    163    10.00    
    476      2     296    164    296    163    10.00    
    477      3     296    164    296    163    10.00    
    478      1     297    161    296    161    10.00    
    479      2     297    161    296    161    10.00    
    480      3     297    161    296    161    10.00    
    481      1     297    162    297    161    10.00    
    482      2     297    162    297    161    10.00    
    483      3     297    162    297    161    10.00    
    484      1     297    164    296    164    10.00    
    485      2     297    164    296    164    10.00    
    486      3     297    164    296    164    10.00    
    487      1     297    165    297    164    10.00    
    488      2     297    165    297    164    10.00    
    489      3     297    165    297    164    10.00    
    490      1     298    162    297    162    10.00    
    491      2     298    162    297    162    10.00    
    492      3     298    162    297    162    10.00    
    493      1     298    163    297    163    10.00    
    494      2     298    163    297    163    10.00    
    495      3     298    163    297    163    10.00    
    496      1     298    164    298    163    10.00    
    497      2     298    164    298    163    10.00    
    498      3     298    164    298    163    10.00    
    499      1     298    165    297    165    10.00    
    500      2     298    165    297    165    10.00    
    501      3     298    165    297    165    10.00    
    502      1     298    166    297    166    10.00    
    503      2     298    166    297    166    10.00    
    504      3     298    166    297    166    10.00    
    505      1     298    167    298    166    10.00    
    506      2     298    167    298    166    10.00    
    507      3     298    167    298    166    10.00    
    508      1     299    161    298    161    10.00    
    509      2     299    161    298    161    10.00    
    510      3     299    161    298    161    10.00    
    511      1     299    162    299    161    10.00    
    512      2     299    162    299    161    10.00    
    513      3     299    162    299    161    10.00    
    514      1     299    164    298    164    10.00    
    515      2     299    164    298    164    10.00    
    516      3     299    164    298    164    10.00    
    517      1     299    165    299    164    10.00    
    518      2     299    165    299    164    10.00    
    519      3     299    165    299    164    10.00    
    520      1     299    167    298    167    10.00    
    521      2     299    167    298    167    10.00    
    522      3     299    167    298    167    10.00    
    523      1     299    168    299    167    10.00    
    524      2     299    168    299    167    10.00    
    525      3     299    168    299    167    10.00    
    526      1     300    162    299    162    10.00    
    527      2     300    162    299    162    10.00    
    528      3     300    162    299    162    10.00    
    529      1     300    163    300    162    10.00    
    530      2     300    163    300    162    10.00    
    531      3     300    163    300    162    10.00    
    532      1     300    165    299    165    10.00    
    533      2     300    165    299    165    10.00    
    534      3     300    165    299    165    10.00    
    535      1     300    166    300    165    10.00    
    536      2     300    166    300    165    10.00    
    537      3     300    166    300    165    10.00    
    538      1     300    168    299    168    10.00    
    539      2     300    168    299    168    10.00    
    540      3     300    168    299    168    10.00    
    541      1     300    169    300    168    10.00    
    542      2     300    169    300    168    10.00    
    543      3     300    169    300    168    10.00    
    544      1     301    163    301    162    10.00    
    545      2     301    163    301    162    10.00    
    546      3     301    163    301    162    10.00    
    547      1     301    166    300    166    10.00    
    548      2     301    166    300    166    10.00    
    549      3     301    166    300    166    10.00    
    550      1     301    167    300    167    10.00    
    551      2     301    167    300    167    10.00    
    552      3     301    167    300    167    10.00    
    553      1     301    168    301    167    10.00    
    554      2     301    168    301    167    10.00    
    555      3     301    168    301    167    10.00    
    556      1     301    169    300    169    10.00    
    557      2     301    169    300    169    10.00    
    558      3     301    169    300    169    10.00    
    559      1     301    170    301    169    10.00    
    560      2     301    170    301    169    10.00    
    561      3     301    170    301    169    10.00    
    562      1     302    163    301    163    10.00    
    563      2     302    163    301    163    10.00    
    564      3     302    163    301    163    10.00    
    565      1     302    164    302    163    10.00    
    566      2     302    164    302    163    10.00    
    567      3     302    164    302    163    10.00    
    568      1     302    168    301    168    10.00    
    569      2     302    168    301    168    10.00    
    570      3     302    168    301    168    10.00    
    571      1     302    169    301    169    10.00    
    572      2     302    169    301    169    10.00    
    573      3     302    169    301    169    10.00    
    574      1     302    170    301    170    10.00    
    575      2     302    170    301    170    10.00    
    576      3     302    170    301    170    10.00    
    577      1     302    171    302    170    10.00    
    578      2     302    171    302    170    10.00    
    579      3     302    171    302    170    10.00    
    580      1     303    164    302    164    10.00    
    581      2     303    164    302    164    10.00    
    582      3     303    164    302    164    10.00    
    583      1     303    165    303    164    10.00    
    584      2     303    165    303    164    10.00    
    585      3     303    165    303    164    10.00    
    586      1     303    171    302    171    10.00    
    587      2     303    171    302    171    10.00    
    588      3     303    171    302    171    10.00    
    589      1     303    172    303    171    10.00    
    590      2     303    172    303    171    10.00    
    591      3     303    172    303    171    10.00    
    592      1     304    165    303    165    10.00    
    593      2     304    165    303    165    10.00    
    594      3     304    165    303    165    10.00    
    595      1     304    166    304    165    10.00    
    596      2     304    166    304    165    10.00    
    597      3     304    166    304    165    10.00    
    598      1     304    172    303    172    10.00    
    599      2     304    172    303    172    10.00    
    600      3     304    172    303    172    10.00    
    601      1     304    173    304    172    10.00    
    602      2     304    173    304    172    10.00    
    603      3     304    173    304    172    10.00    
    604      1     305    173    304    173    10.00    
    605      2     305    173    304    173    10.00    
    606      3     305    173    304    173    10.00    
    607      1      26     28     26     27    10.00    
    608      2      26     28     26     27    10.00    
    609      3      26     28     26     27    10.00    
    610      1      27     28     27     27    10.00    
    611      2      27     28     27     27    10.00    
    612      3      27     28     27     27    10.00    
    613      1      28     28     27     28    10.00    
    614      2      28     28     27     28    10.00    
    615      3      28     28     27     28    10.00    
    616      1      28     29     28     28    10.00    
    617      2      28     29     28     28    10.00    
    618      3      28     29     28     28    10.00    
    619      1      29     29     28     29    10.00    
    620      2      29     29     28     29    10.00    
    621      3      29     29     28     29    10.00    
    622      1      29     30     29     29    10.00    
    623      2      29     30     29     29    10.00    
    624      3      29     30     29     29    10.00    
    625      1      30     30     30     29    10.00    
    626      2      30     30     30     29    10.00    
    627      3      30     30     30     29    10.00    
    628      1      31     30     30     30    10.00    
    629      2      31     30     30     30    10.00    
    630      3      31     30     30     30    10.00    
    631      1      31     31     31     30    10.00    
    632      2      31     31     31     30    10.00    
    633      3      31     31     31     30    10.00    
    634      1      32     31     31     31    10.00    
    635      2      32     31     31     31    10.00    
    636      3      32     31     31     31    10.00    
    637      1      32     32     32     31    10.00    
    638      2      32     32     32     31    10.00    
    639      3      32     32     32     31    10.00    
    640      1      33     32     33     31    10.00    
    641      2      33     32     33     31    10.00    
    642      3      33     32     33     31    10.00    
    643      1      34     32     33     32    10.00    
    644      2      34     32     33     32    10.00    
    645      3      34     32     33     32    10.00    
    646      1      34     33     34     32    10.00    
    647      2      34     33     34     32    10.00    
    648      3      34     33     34     32    10.00    
    649      1      35     33     34     33    10.00    
    650      2      35     33     34     33    10.00    
    651      3      35     33     34     33    10.00    
    652      1      35     34     35     33    10.00    
    653      2      35     34     35     33    10.00    
    654      3      35     34     35     33    10.00    
    655      1      36     34     35     34    10.00    
    656      2      36     34     35     34    10.00    
    657      3      36     34     35     34    10.00    
    658      1      36     35     36     34    10.00    
    659      2      36     35     36     34    10.00    
    660      3      36     35     36     34    10.00    
    661      1      37     35     37     34    10.00    
    662      2      37     35     37     34    10.00    
    663      3      37     35     37     34    10.00    
    664      1      38     35     37     35    10.00    
    665      2      38     35     37     35    10.00    
    666      3      38     35     37     35    10.00    
    667      1      38     36     38     35    10.00    
    668      2      38     36     38     35    10.00    
    669      3      38     36     38     35    10.00    
    670      1      39     36     38     36    10.00    
    671      2      39     36     38     36    10.00    
    672      3      39     36     38     36    10.00    
    673      1      39     37     39     36    10.00    
    674      2      39     37     39     36    10.00    
    675      3      39     37     39     36    10.00    
    676      1      40     37     39     37    10.00    
    677      2      40     37     39     37    10.00    
    678      3      40     37     39     37    10.00    
    679      1      40     38     40     37    10.00    
    680      2      40     38     40     37    10.00    
    681      3      40     38     40     37    10.00    
    682      1      41     38     40     38    10.00    
    683      2      41     38     40     38    10.00    
    684      3      41     38     40     38    10.00    
    685      1      41     39     41     38    10.00    
    686      2      41     39     41     38    10.00    
    687      3      41     39     41     38    10.00    
    688      1      42     39     41     39    10.00    
    689      2      42     39     41     39    10.00    
    690      3      42     39     41     39    10.00    
    691      1      42     40     42     39    10.00    
    692      2      42     40     42     39    10.00    
    693      3      42     40     42     39    10.00    
    694      1      43     40     43     39    10.00    
    695      2      43     40     43     39    10.00    
    696      3      43     40     43     39    10.00    
    697      1      44     40     43     40    10.00    
    698      2      44     40     43     40    10.00    
    699      3      44     40     43     40    10.00    
    700      1      44     41     44     40    10.00    
    701      2      44     41     44     40    10.00    
    702      3      44     41     44     40    10.00    
    703      1      45     41     45     40    10.00    
    704      2      45     41     45     40    10.00    
    705      3      45     41     45     40    10.00    
    706      1      46     41     45     41    10.00    
    707      2      46     41     45     41    10.00    
    708      3      46     41     45     41    10.00    
    709      1      46     42     46     41    10.00    
    710      2      46     42     46     41    10.00    
    711      3      46     42     46     41    10.00    
    712      1      47     42     46     42    10.00    
    713      2      47     42     46     42    10.00    
    714      3      47     42     46     42    10.00    
    715      1      47     43     47     42    10.00    
    716      2      47     43     47     42    10.00    
    717      3      47     43     47     42    10.00    
    718      1      48     43     48     42    10.00    
    719      2      48     43     48     42    10.00    
    720      3      48     43     48     42    10.00    
    721      1      49     43     48     43    10.00    
    722      2      49     43     48     43    10.00    
    723      3      49     43     48     43    10.00    
    724      1      49     44     49     43    10.00    
    725      2      49     44     49     43    10.00    
    726      3      49     44     49     43    10.00    
    727      1      50     44     49     44    10.00    
    728      2      50     44     49     44    10.00    
    729      3      50     44     49     44    10.00    
    730      1      50     45     50     44    10.00    
    731      2      50     45     50     44    10.00    
    732      3      50     45     50     44    10.00    
    733      1      51     45     51     44    10.00    
    734      2      51     45     51     44    10.00    
    735      3      51     45     51     44    10.00    
    736      1      52     45     51     45    10.00    
    737      2      52     45     51     45    10.00    
    738      3      52     45     51     45    10.00    
    739      1      52     46     52     45    10.00    
    740      2      52     46     52     45    10.00    
    741      3      52     46     52     45    10.00    
    742      1      53     46     53     45    10.00    
    743      2      53     46     53     45    10.00    
    744      3      53     46     53     45    10.00    
    745      1      54     46     53     46    10.00    
    746      2      54     46     53     46    10.00    
    747      3      54     46     53     46    10.00    
    748      1      54     47     54     46    10.00    
    749      2      54     47     54     46    10.00    
    750      3      54     47     54     46    10.00    
    751      1      55     47     55     46    10.00    
    752      2      55     47     55     46    10.00    
    753      3      55     47     55     46    10.00    
    754      1      56     47     56     46    10.00    
    755      2      56     47     56     46    10.00    
    756      3      56     47     56     46    10.00    
    757      1      57     47     56     47    10.00    
    758      2      57     47     56     47    10.00    
    759      3      57     47     56     47    10.00    
    760      1      57     48     57     47    10.00    
    761      2      57     48     57     47    10.00    
    762      3      57     48     57     47    10.00    
    763      1      58     48     57     48    10.00    
    764      2      58     48     57     48    10.00    
    765      3      58     48     57     48    10.00    
    766      1      58     49     58     48    10.00    
    767      2      58     49     58     48    10.00    
    768      3      58     49     58     48    10.00    
    769      1      59     49     59     48    10.00    
    770      2      59     49     59     48    10.00    
    771      3      59     49     59     48    10.00    
    772      1      60     49     59     49    10.00    
    773      2      60     49     59     49    10.00    
    774      3      60     49     59     49    10.00    
    775      1      60     50     60     49    10.00    
    776      2      60     50     60     49    10.00    
    777      3      60     50     60     49    10.00    
    778      1      61     50     61     49    10.00    
    779      2      61     50     61     49    10.00    
    780      3      61     50     61     49    10.00    
    781      1      62     50     61     50    10.00    
    782      2      62     50     61     50    10.00    
    783      3      62     50     61     50    10.00    
    784      1      62     51     62     50    10.00    
    785      2      62     51     62     50    10.00    
    786      3      62     51     62     50    10.00    
    787      1      63     51     63     50    10.00    
    788      2      63     51     63     50    10.00    
    789      3      63     51     63     50    10.00    
    790      1      64     51     63     51    10.00    
    791      2      64     51     63     51    10.00    
    792      3      64     51     63     51    10.00    
    793      1      64     52     64     51    10.00    
    794      2      64     52     64     51    10.00    
    795      3      64     52     64     51    10.00    
    796      1      65     52     65     51    10.00    
    797      2      65     52     65     51    10.00    
    798      3      65     52     65     51    10.00    
    799      1      66     52     65     52    10.00    
    800      2      66     52     65     52    10.00    
    801      3      66     52     65     52    10.00    
    802      1      66     53     66     52    10.00    
    803      2      66     53     66     52    10.00    
    804      3      66     53     66     52    10.00    
    805      1      67     53     67     52    10.00    
    806      2      67     53     67     52    10.00    
    807      3      67     53     67     52    10.00    
    808      1      68     53     68     52    10.00    
    809      2      68     53     68     52    10.00    
    810      3      68     53     68     52    10.00    
    811      1      69     53     68     53    10.00    
    812      2      69     53     68     53    10.00    
    813      3      69     53     68     53    10.00    
    814      1      69     53     69     52    10.00    
    815      2      69     53     69     52    10.00    
    816      3      69     53     69     52    10.00    
    817      1      69     54     69     53    10.00    
    818      2      69     54     69     53    10.00    
    819      3      69     54     69     53    10.00    
    820      1      70     53     69     53    10.00    
    821      2      70     53     69     53    10.00    
    822      3      70     53     69     53    10.00    
    823      1      70     54     70     53    10.00    
    824      2      70     54     70     53    10.00    
    825      3      70     54     70     53    10.00    
    826      1      71     54     70     54    10.00    
    827      2      71     54     70     54    10.00    
    828      3      71     54     70     54    10.00    
    829      1      71     54     71     53    10.00    
    830      2      71     54     71     53    10.00    
    831      3      71     54     71     53    10.00    
    832      1      71     55     71     54    10.00    
    833      2      71     55     71     54    10.00    
    834      3      71     55     71     54    10.00    
    835      1      72     54     72     53    10.00    
    836      2      72     54     72     53    10.00    
    837      3      72     54     72     53    10.00    
    838      1      72     55     72     54    10.00    
    839      2      72     55     72     54    10.00    
    840      3      72     55     72     54    10.00    
    841      1      73     54     72     54    10.00    
    842      2      73     54     72     54    10.00    
    843      3      73     54     72     54    10.00    
    844      1      73     55     72     55    10.00    
    845      2      73     55     72     55    10.00    
    846      3      73     55     72     55    10.00    
    847      1      73     55     73     54    10.00    
    848      2      73     55     73     54    10.00    
    849      3      73     55     73     54    10.00    
    850      1      73     56     73     55    10.00    
    851      2      73     56     73     55    10.00    
    852      3      73     56     73     55    10.00    
    853      1      74     55     74     54    10.00    
    854      2      74     55     74     54    10.00    
    855      3      74     55     74     54    10.00    
    856      1      74     56     74     55    10.00    
    857      2      74     56     74     55    10.00    
    858      3      74     56     74     55    10.00    
    859      1      75     55     74     55    10.00    
    860      2      75     55     74     55    10.00    
    861      3      75     55     74     55    10.00    
    862      1      75     56     74     56    10.00    
    863      2      75     56     74     56    10.00    
    864      3      75     56     74     56    10.00    
    865      1      75     56     75     55    10.00    
    866      2      75     56     75     55    10.00    
    867      3      75     56     75     55    10.00    
    868      1      75     57     75     56    10.00    
    869      2      75     57     75     56    10.00    
    870      3      75     57     75     56    10.00    
    871      1      76     56     76     55    10.00    
    872      2      76     56     76     55    10.00    
    873      3      76     56     76     55    10.00    
    874      1      76     57     76     56    10.00    
    875      2      76     57     76     56    10.00    
    876      3      76     57     76     56    10.00    
    877      1      77     56     76     56    10.00    
    878      2      77     56     76     56    10.00    
    879      3      77     56     76     56    10.00    
    880      1      77     57     76     57    10.00    
    881      2      77     57     76     57    10.00    
    882      3      77     57     76     57    10.00    
    883      1      77     58     77     57    10.00    
    884      2      77     58     77     57    10.00    
    885      3      77     58     77     57    10.00    
    886      1      78     58     78     57    10.00    
    887      2      78     58     78     57    10.00    
    888      3      78     58     78     57    10.00    
    889      1      79     58     78     58    10.00    
    890      2      79     58     78     58    10.00    
    891      3      79     58     78     58    10.00    
    892      1      79     59     79     58    10.00    
    893      2      79     59     79     58    10.00    
    894      3      79     59     79     58    10.00    
    895      1      80     59     80     58    10.00    
    896      2      80     59     80     58    10.00    
    897      3      80     59     80     58    10.00    
    898      1      81     59     81     58    10.00    
    899      2      81     59     81     58    10.00    
    900      3      81     59     81     58    10.00    
    901      1      82     59     81     59    10.00    
    902      2      82     59     81     59    10.00    
    903      3      82     59     81     59    10.00    
    904      1      82     60     82     59    10.00    
    905      2      82     60     82     59    10.00    
    906      3      82     60     82     59    10.00    
    907      1      83     60     83     59    10.00    
    908      2      83     60     83     59    10.00    
    909      3      83     60     83     59    10.00    
    910      1      84     60     84     59    10.00    
    911      2      84     60     84     59    10.00    
    912      3      84     60     84     59    10.00    
    913      1      85     60     84     60    10.00    
    914      2      85     60     84     60    10.00    
    915      3      85     60     84     60    10.00    
    916      1      85     61     85     60    10.00    
    917      2      85     61     85     60    10.00    
    918      3      85     61     85     60    10.00    
    919      1      86     61     86     60    10.00    
    920      2      86     61     86     60    10.00    
    921      3      86     61     86     60    10.00    
    922      1      87     61     86     61    10.00    
    923      2      87     61     86     61    10.00    
    924      3      87     61     86     61    10.00    
    925      1      87     62     87     61    10.00    
    926      2      87     62     87     61    10.00    
    927      3      87     62     87     61    10.00    
    928      1      88     62     88     61    10.00    
    929      2      88     62     88     61    10.00    
    930      3      88     62     88     61    10.00    
    931      1      89     62     89     61    10.00    
    932      2      89     62     89     61    10.00    
    933      3      89     62     89     61    10.00    
    934      1      90     62     89     62    10.00    
    935      2      90     62     89     62    10.00    
    936      3      90     62     89     62    10.00    
    937      1      90     63     90     62    10.00    
    938      2      90     63     90     62    10.00    
    939      3      90     63     90     62    10.00    
    940      1      91     63     91     62    10.00    
    941      2      91     63     91     62    10.00    
    942      3      91     63     91     62    10.00    
    943      1      92     63     91     63    10.00    
    944      2      92     63     91     63    10.00    
    945      3      92     63     91     63    10.00    
    946      1      92     64     92     63    10.00    
    947      2      92     64     92     63    10.00    
    948      3      92     64     92     63    10.00    
    949      1      93     64     93     63    10.00    
    950      2      93     64     93     63    10.00    
    951      3      93     64     93     63    10.00    
    952      1      94     64     93     64    10.00    
    953      2      94     64     93     64    10.00    
    954      3      94     64     93     64    10.00    
    955      1      94     65     94     64    10.00    
    956      2      94     65     94     64    10.00    
    957      3      94     65     94     64    10.00    
    958      1      95     65     95     64    10.00    
    959      2      95     65     95     64    10.00    
    960      3      95     65     95     64    10.00    
    961      1      96     65     96     64    10.00    
    962      2      96     65     96     64    10.00    
    963      3      96     65     96     64    10.00    
    964      1      97     65     96     65    10.00    
    965      2      97     65     96     65    10.00    
    966      3      97     65     96     65    10.00    
    967      1      97     66     97     65    10.00    
    968      2      97     66     97     65    10.00    
    969      3      97     66     97     65    10.00    
    970      1      98     66     97     66    10.00    
    971      2      98     66     97     66    10.00    
    972      3      98     66     97     66    10.00    
    973      1      98     67     98     66    10.00    
    974      2      98     67     98     66    10.00    
    975      3      98     67     98     66    10.00    
    976      1      99     67     99     66    10.00    
    977      2      99     67     99     66    10.00    
    978      3      99     67     99     66    10.00    
    979      1     100     67     99     67    10.00    
    980      2     100     67     99     67    10.00    
    981      3     100     67     99     67    10.00    
    982      1     100     68    100     67    10.00    
    983      2     100     68    100     67    10.00    
    984      3     100     68    100     67    10.00    
    985      1     101     68    101     67    10.00    
    986      2     101     68    101     67    10.00    
    987      3     101     68    101     67    10.00    
    988      1     102     68    102     67    10.00    
    989      2     102     68    102     67    10.00    
    990      3     102     68    102     67    10.00    
    991      1     103     68    102     68    10.00    
    992      2     103     68    102     68    10.00    
    993      3     103     68    102     68    10.00    
    994      1     103     69    103     68    10.00    
    995      2     103     69    103     68    10.00    
    996      3     103     69    103     68    10.00    
    997      1     104     69    104     68    10.00    
    998      2     104     69    104     68    10.00    
    999      3     104     69    104     68    10.00    
   1000      1     105     69    105     68    10.00    
   1001      2     105     69    105     68    10.00    
   1002      3     105     69    105     68    10.00    
   1003      1     106     69    105     69    10.00    
   1004      2     106     69    105     69    10.00    
   1005      3     106     69    105     69    10.00    
   1006      1     106     70    106     69    10.00    
   1007      2     106     70    106     69    10.00    
   1008      3     106     70    106     69    10.00    
   1009      1     107     70    107     69    10.00    
   1010      2     107     70    107     69    10.00    
   1011      3     107     70    107     69    10.00    
   1012      1     108     70    108     69    10.00    
   1013      2     108     70    108     69    10.00    
   1014      3     108     70    108     69    10.00    
   1015      1     109     70    109     69    10.00    
   1016      2     109     70    109     69    10.00    
   1017      3     109     70    109     69    10.00    
   1018      1     110     70    109     70    10.00    
   1019      2     110     70    109     70    10.00    
   1020      3     110     70    109     70    10.00    
   1021      1     110     71    110     70    10.00    
   1022      2     110     71    110     70    10.00    
   1023      3     110     71    110     70    10.00    
   1024      1     111     71    111     70    10.00    
   1025      2     111     71    111     70    10.00    
   1026      3     111     71    111     70    10.00    
   1027      1     112     71    111     71    10.00    
   1028      2     112     71    111     71    10.00    
   1029      3     112     71    111     71    10.00    
   1030      1     112     72    112     71    10.00    
   1031      2     112     72    112     71    10.00    
   1032      3     112     72    112     71    10.00    
   1033      1     113     72    113     71    10.00    
   1034      2     113     72    113     71    10.00    
   1035      3     113     72    113     71    10.00    
   1036      1     114     72    113     72    10.00    
   1037      2     114     72    113     72    10.00    
   1038      3     114     72    113     72    10.00    
   1039      1     114     73    114     72    10.00    
   1040      2     114     73    114     72    10.00    
   1041      3     114     73    114     72    10.00    
   1042      1     115     73    115     72    10.00    
   1043      2     115     73    115     72    10.00    
   1044      3     115     73    115     72    10.00    
   1045      1     116     73    115     73    10.00    
   1046      2     116     73    115     73    10.00    
   1047      3     116     73    115     73    10.00    
   1048      1     116     74    116     73    10.00    
   1049      2     116     74    116     73    10.00    
   1050      3     116     74    116     73    10.00    
   1051      1     117     74    117     73    10.00    
   1052      2     117     74    117     73    10.00    
   1053      3     117     74    117     73    10.00    
[...]
 LAKE     USE         INFLUX       IN VOL.    DISCREPANCY
   1   0.0000E+00   0.0000E+00    N/A (SS)      -0.000
   2   0.0000E+00   0.0000E+00    N/A (SS)      -0.000
   3   0.0000E+00   0.0000E+00    N/A (SS)       0.000
   4   0.0000E+00   0.0000E+00    N/A (SS)       0.000
   5   0.0000E+00   0.0000E+00    N/A (SS)       0.000
   6   0.0000E+00   0.0000E+00    N/A (SS)       0.000
   7   0.0000E+00   0.0000E+00    N/A (SS)       0.000
   8   0.0000E+00   0.0000E+00    N/A (SS)    -100.000
   9   0.0000E+00   0.0000E+00    N/A (SS)       0.008
  10   0.0000E+00   0.0000E+00    N/A (SS)       0.000
  11   0.0000E+00   0.0000E+00    N/A (SS)      68.512
 --------------------------------------------------------------------------------



UNSATURATED ZONE PACKAGE VOLUMETRIC BUDGET FOR  TIME STEP     1 STRESS PERIOD    1
  ------------------------------------------------------------------------------



     CUMULATIVE VOLUMES      L**3       RATES FOR THIS TIME STEP      L**3/T
     ------------------                 ------------------------

           IN:                                      IN:
           ---                                      ---
        INFILTRATION =     1569162.8316          INFILTRATION =     1569162.8316

          OUT:                                     OUT:
          ----                                     ----
              UZF ET =       0.0000E+00                UZF ET =       0.0000E+00
        UZF RECHARGE =     1569162.8316          UZF RECHARGE =     1569162.8316

            IN - OUT =       0.0000E+00              IN - OUT =       0.0000E+00

          STORAGE:                                 STORAGE:
          --------                                 --------
      STORAGE CHANGE =       0.0000E+00        STORAGE CHANGE =       0.0000E+00

 PERCENT DISCREPANCY IS DIFFERENCE BETWEEN IN-OUT MINUS CHANGE IN STORAGE
 DIVIDED BY THE AVERAGE OF IN AND OUT TIMES 100

 PERCENT DISCREPANCY =           0.00     PERCENT DISCREPANCY =           0.00







 INTERPOLATION FOR HEAD OBS#   16, ID HO_15        CHANGED BECAUSE AT LEAST ONE
 NEIGHBORING CELL REQUIRED FOR INTERPOLATION IS DRY OR INACTIVE (OBS2BAS7SE)

 INTERPOLATION FOR HEAD OBS#   18, ID HO_17        CHANGED BECAUSE AT LEAST ONE
 NEIGHBORING CELL REQUIRED FOR INTERPOLATION IS DRY OR INACTIVE (OBS2BAS7SE)

 INTERPOLATION FOR HEAD OBS#   21, ID HO_20        CHANGED BECAUSE AT LEAST ONE
 NEIGHBORING CELL REQUIRED FOR INTERPOLATION IS DRY OR INACTIVE (OBS2BAS7SE)

 INTERPOLATION FOR HEAD OBS#   50, ID HO_49        CHANGED BECAUSE AT LEAST ONE
 NEIGHBORING CELL REQUIRED FOR INTERPOLATION IS DRY OR INACTIVE (OBS2BAS7SE)

 INTERPOLATION FOR HEAD OBS#   67, ID HO_66        CHANGED BECAUSE AT LEAST ONE
 NEIGHBORING CELL REQUIRED FOR INTERPOLATION IS DRY OR INACTIVE (OBS2BAS7SE)

 INTERPOLATION FOR HEAD OBS#   80, ID HO_79        CHANGED BECAUSE AT LEAST ONE
 NEIGHBORING CELL REQUIRED FOR INTERPOLATION IS DRY OR INACTIVE (OBS2BAS7SE)

 INTERPOLATION FOR HEAD OBS#   88, ID HO_87        CHANGED BECAUSE AT LEAST ONE
 NEIGHBORING CELL REQUIRED FOR INTERPOLATION IS DRY OR INACTIVE (OBS2BAS7SE)

 INTERPOLATION FOR HEAD OBS#  101, ID HO_100       CHANGED BECAUSE AT LEAST ONE
 NEIGHBORING CELL REQUIRED FOR INTERPOLATION IS DRY OR INACTIVE (OBS2BAS7SE)

 INTERPOLATION FOR HEAD OBS#  112, ID HO_111       CHANGED BECAUSE AT LEAST ONE
 NEIGHBORING CELL REQUIRED FOR INTERPOLATION IS DRY OR INACTIVE (OBS2BAS7SE)

 INTERPOLATION FOR HEAD OBS#  114, ID HO_113       CHANGED BECAUSE AT LEAST ONE
 NEIGHBORING CELL REQUIRED FOR INTERPOLATION IS DRY OR INACTIVE (OBS2BAS7SE)

 INTERPOLATION FOR HEAD OBS#  116, ID HO_115       CHANGED BECAUSE AT LEAST ONE
 NEIGHBORING CELL REQUIRED FOR INTERPOLATION IS DRY OR INACTIVE (OBS2BAS7SE)

 INTERPOLATION FOR HEAD OBS#  120, ID HO_119       CHANGED BECAUSE AT LEAST ONE
 NEIGHBORING CELL REQUIRED FOR INTERPOLATION IS DRY OR INACTIVE (OBS2BAS7SE)

 INTERPOLATION FOR HEAD OBS#  122, ID HO_121       CHANGED BECAUSE AT LEAST ONE
 NEIGHBORING CELL REQUIRED FOR INTERPOLATION IS DRY OR INACTIVE (OBS2BAS7SE)

 INTERPOLATION FOR HEAD OBS#  166, ID HO_165       CHANGED BECAUSE AT LEAST ONE
 NEIGHBORING CELL REQUIRED FOR INTERPOLATION IS DRY OR INACTIVE (OBS2BAS7SE)

 HEAD WILL BE SAVED ON UNIT   51 AT END OF TIME STEP    1, STRESS PERIOD    1
1
  VOLUMETRIC BUDGET FOR ENTIRE MODEL AT END OF TIME STEP    1, STRESS PERIOD   1
  ------------------------------------------------------------------------------

     CUMULATIVE VOLUMES      L**3       RATES FOR THIS TIME STEP      L**3/T
     ------------------                 ------------------------

           IN:                                      IN:
           ---                                      ---
             STORAGE     =           0.0000               STORAGE     =           0.0000
       CONSTANT HEAD     =           0.0000         CONSTANT HEAD     =           0.0000
               WELLS     =           0.0000                 WELLS     =           0.0000
      STREAM LEAKAGE     =      193806.6875        STREAM LEAKAGE     =      193806.6875
       LAKE  SEEPAGE     =       52088.7031         LAKE  SEEPAGE     =       52088.7031
        UZF RECHARGE     =     1569086.6250          UZF RECHARGE     =     1569086.6250
               GW ET     =           0.0000                 GW ET     =           0.0000
     SURFACE LEAKAGE     =           0.0000       SURFACE LEAKAGE     =           0.0000

                TOTAL IN =     1814982.0000                  TOTAL IN =     1814982.0000

          OUT:                                     OUT:
          ----                                     ----
             STORAGE     =           0.0000               STORAGE     =           0.0000
       CONSTANT HEAD     =           0.0000         CONSTANT HEAD     =           0.0000
               WELLS     =      173319.2031                 WELLS     =      173319.2031
      STREAM LEAKAGE     =     1433808.5000        STREAM LEAKAGE     =     1433808.5000
       LAKE  SEEPAGE     =        9349.0840         LAKE  SEEPAGE     =        9349.0840
        UZF RECHARGE     =           0.0000          UZF RECHARGE     =           0.0000
               GW ET     =       48533.2461                 GW ET     =       48533.2461
     SURFACE LEAKAGE     =      150051.5469       SURFACE LEAKAGE     =      150051.5469

               TOTAL OUT =     1815061.6250                 TOTAL OUT =     1815061.6250

                IN - OUT =         -79.6250                  IN - OUT =         -79.6250

     PERCENT DISCREPANCY =          -0.00         PERCENT DISCREPANCY =          -0.00






         TIME SUMMARY AT END OF TIME STEP    1 IN STRESS PERIOD    1
                    SECONDS     MINUTES      HOURS       DAYS        YEARS
                    -----------------------------------------------------------
   TIME STEP LENGTH  86400.      1440.0      24.000      1.0000     2.73785E-03
 STRESS PERIOD TIME  86400.      1440.0      24.000      1.0000     2.73785E-03
         TOTAL TIME  86400.      1440.0      24.000      1.0000     2.73785E-03
1

 HEAD AND DRAWDOWN OBSERVATIONS
 OBSERVATION       OBSERVED           SIMULATED
   NAME              VALUE              VALUE             DIFFERENCE
 --------------------------------------------------------------------
 HO_0            38.313400269        49.690078735       -11.376678467    
 HO_1            38.800998688        44.364192963       -5.5631942749    
 HO_2            27.794700623        24.618944168        3.1757564545    
 HO_3            18.714700699        24.393505096       -5.6788043976    
 HO_4            60.054698944        50.512145996        9.5425529480    
 HO_5            24.632799149        28.041612625       -3.4088134766    
 HO_6            15.508199692        16.005910873      -0.49771118164    
 HO_7            553.65997314        519.50305176        34.156921387    
 HO_8            64.712402344        68.256431580       -3.5440292358    
 HO_9            58.277801514        63.326622009       -5.0488204956    
 HO_10           95.899200439        79.245422363        16.653778076    
 HO_11           45.289001465        47.301601410       -2.0125999451    
 HO_12           57.997299194        45.330406189        12.666893005    
 HO_13           60.713100433        96.308372498       -35.595272064    
 HO_14           380.53979492        290.60455322        89.935241699    
 HO_15           321.51519775        256.18853760        65.326660156    
 HO_16           89.027603149        92.648078918       -3.6204757690    
 HO_17           104.53649902        103.17157745        1.3649215698    
 HO_18           238.96319580        252.27606201       -13.312866211    
 HO_19           234.05749512        282.65762329       -48.600128174    
 HO_20           219.53829956        240.65055847       -21.112258911    
 HO_21           220.83050537        240.11640930       -19.285903931    
 HO_22           256.07409668        261.73983765       -5.6657409668    
 HO_23           229.42480469        234.91796875       -5.4931640625    
 HO_24           230.24800110        232.56964111       -2.3216400146    
 HO_25           226.52009583        231.59698486       -5.0768890381    
 HO_26           258.18630981        255.72105408        2.4652557373    
 HO_27           220.44960022        231.74299622       -11.293395996    
 HO_28           248.59339905        252.53181458       -3.9384155273    
 HO_29           237.55070496        245.71743774       -8.1667327881    
 HO_30           217.59480286        219.49398804       -1.8991851807    
 HO_31           245.39030457        241.42552185        3.9647827148    
 HO_32           205.73699951        219.73680115       -13.999801636    
 HO_33           233.65969849        232.54173279        1.1179656982    
 HO_34           239.38380432        232.07400513        7.3097991943    
 HO_35           199.04200745        220.32548523       -21.283477783    
 HO_36           204.35380554        207.09951782       -2.7457122803    
 HO_37           219.51489258        216.34457397        3.1703186035    
 HO_38           237.57690430        201.24765015        36.329254150    
 HO_39           232.42109680        199.95906067        32.462036133    
 HO_40           238.89169312        199.48686218        39.404830933    
 HO_41           189.36000061        195.64068604       -6.2806854248    
 HO_42           200.19979858        195.22723389        4.9725646973    
 HO_43           199.72779846        192.95051575        6.7772827148    
 HO_44           196.18760681        193.25622559        2.9313812256    
 HO_45           184.28210449        183.08821106        1.1938934326    
 HO_46           14.057399750        48.068889618       -34.011489868    
 HO_47           165.55059814        173.68330383       -8.1327056885    
 HO_48           119.11579895        172.64860535       -53.532806396    
 HO_49           337.27639771        213.70462036        123.57177734    
 HO_50           250.39559937        292.60391235       -42.208312988    
 HO_51           237.75010681        250.34873962       -12.598632812    
 HO_52           342.96099854        355.55694580       -12.595947266    
 HO_53           140.08610535        147.16343689       -7.0773315430    
 HO_54           336.10299683        280.11239624        55.990600586    
 HO_55           147.63600159        150.58540344       -2.9494018555    
 HO_56           155.51350403        158.85241699       -3.3389129639    
 HO_57           162.74639893        162.80520630      -5.88073730469E-02
 HO_58           196.15400696        192.34715271        3.8068542480    
 HO_59           315.90390015        242.07876587        73.825134277    
 HO_60           261.98168945        237.82450867        24.157180786    
 HO_61           266.22531128        255.98275757        10.242553711    
 HO_62           160.18150330        166.08760071       -5.9060974121    
 HO_63           161.90060425        166.11895752       -4.2183532715    
 HO_64           273.72229004        231.44332886        42.278961182    
 HO_65           176.05250549        179.27348328       -3.2209777832    
 HO_66           236.40899658        229.63578796        6.7732086182    
 HO_67           222.76829529        217.53201294        5.2362823486    
 HO_68           181.57699585        215.33044434       -33.753448486    
 HO_69           245.48440552        238.84934998        6.6350555420    
 HO_70           202.23950195        205.61085510       -3.3713531494    
 HO_71           229.00079346        225.86033630        3.1404571533    
 HO_72           209.31939697        213.43356323       -4.1141662598    
 HO_73           239.66839600        237.39009094        2.2783050537    
 HO_74           239.43040466        237.01858521        2.4118194580    
 HO_75           212.78489685        208.52227783        4.2626190186    
 HO_76           216.19380188        221.07914734       -4.8853454590    
 HO_77           235.84030151        237.08882141       -1.2485198975    
 HO_78           221.04710388        213.70848083        7.3386230469    
 HO_79           240.23829651        211.68519592        28.553100586    
 HO_80           238.40849304        211.74583435        26.662658691    
 HO_81           243.41200256        232.63882446        10.773178101    
 HO_82           216.59089661        239.23547363       -22.644577026    
 HO_83           246.85749817        242.82055664        4.0369415283    
 HO_84           219.97979736        215.34519958        4.6345977783    
 HO_85           235.41929626        215.30557251        20.113723755    
 HO_86           261.61441040        252.36686707        9.2475433350    
 HO_87           258.69018555        248.88793945        9.8022460938    
 HO_88           223.72779846        214.72338867        9.0044097900    
 HO_89           216.57719421        215.17466736        1.4025268555    
 HO_90           248.27180481        224.71009827        23.561706543    
 HO_91           250.71629333        226.06838989        24.647903442    
 HO_92           13.024399757        21.895185471       -8.8707857132    
 HO_93           16.462400436        20.930465698       -4.4680652618    
 HO_94           10.562000275        20.935916901       -10.373916626    
 HO_95           9.6842002869        20.944894791       -11.260694504    
 HO_96           16.196300507        20.974351883       -4.7780513763    
 HO_97           18.135700226        22.872343063       -4.7366428375    
 HO_98           18.052499771        22.467773438       -4.4152736664    
 HO_99           21.182199478        26.504240036       -5.3220405579    
 HO_100          38.029998779        45.688777924       -7.6587791443    
 HO_101          62.427200317        46.481925964        15.945274353    
 HO_102          51.616798401        53.595550537       -1.9787521362    
 HO_103          55.691600800        54.707672119       0.98392868042    
 HO_104          83.260803223        88.234588623       -4.9737854004    
 HO_105          85.791000366        84.984657288       0.80634307861    
 HO_106          85.630699158        65.162109375        20.468589783    
 HO_107          274.96450806        275.71380615      -0.74929809570    
 HO_108          290.53280640        288.67416382        1.8586425781    
 HO_109          290.83679199        289.16751099        1.6692810059    
 HO_110          190.37519836        122.68818665        67.687011719    
 HO_111          91.075401306        55.802108765        35.273292542    
 HO_112          46.275699615        45.279773712       0.99592590332    
 HO_113          52.023300171        40.002983093        12.020317078    
 HO_114          45.188999176        37.684917450        7.5040817261    
 HO_115          51.623500824        34.102462769        17.521038055    
 HO_116          48.133598328        51.621341705       -3.4877433777    
 HO_117          48.884998322        55.745704651       -6.8607063293    
 HO_118          14.085100174        82.735359192       -68.650260925    
 HO_119          34.228298187        49.976016998       -15.747718811    
 HO_120          47.948299408        47.937480927       1.08184814453E-02
 HO_121          50.092498779        52.804637909       -2.7121391296    
 HO_122          43.592700958        50.110183716       -6.5174827576    
 HO_123          45.941600800        53.345966339       -7.4043655396    
 HO_124          46.929599762        52.075645447       -5.1460456848    
 HO_125          47.054698944        52.941753387       -5.8870544434    
 HO_126          59.331600189        60.466838837       -1.1352386475    
 HO_127          59.007198334        57.829418182        1.1777801514    
 HO_128          53.384700775        63.779521942       -10.394821167    
 HO_129          72.579696655        82.516319275       -9.9366226196    
 HO_130          168.79690552        181.24670410       -12.449798584    
 HO_131          167.08700562        182.31898499       -15.231979370    
 HO_132          166.07130432        177.14643860       -11.075134277    
 HO_133          169.67410278        179.90872192       -10.234619141    
 HO_134          169.79299927        175.77421570       -5.9812164307    
 HO_135          170.55389404        177.43644714       -6.8825531006    
 HO_136          170.13690186        177.86961365       -7.7327117920    
 HO_137          169.91850281        176.76823425       -6.8497314453    
 HO_138          170.33790588        177.67355347       -7.3356475830    
 HO_139          168.28819275        181.10997009       -12.821777344    
 HO_140          189.68879700        188.87870789       0.81008911133    
 HO_141          183.78070068        186.53598022       -2.7552795410    
 HO_142          179.21749878        188.18128967       -8.9637908936    
 HO_143          176.79229736        188.18128967       -11.388992310    
 HO_144          176.56269836        188.18128967       -11.618591309    
 HO_145          176.34320068        188.18128967       -11.838088989    
 HO_146          200.43879700        213.67767334       -13.238876343    
 HO_147          186.45359802        213.67767334       -27.224075317    
 HO_148          195.75100708        213.67767334       -17.926666260    
 HO_149          295.83660889        295.18270874       0.65390014648    
 HO_150          211.71690369        216.92373657       -5.2068328857    
 HO_151          218.78930664        211.05091858        7.7383880615    
 HO_152          214.98100281        211.17570496        3.8052978516    
 HO_153          231.26370239        227.59870911        3.6649932861    
 HO_154          222.46429443        217.20399475        5.2602996826    
 HO_155          270.81109619        255.21948242        15.591613770    
 HO_156          148.44999695        151.07113647       -2.6211395264    
 HO_157          143.31469727        149.43582153       -6.1211242676    
 HO_158          142.52330017        149.43582153       -6.9125213623    
 HO_159          161.10940552        160.04539490        1.0640106201    
 HO_160          147.62240601        150.62332153       -3.0009155273    
 HO_161          11.063899994        1.3087301254        9.7551698685    
 HO_162         0.97460001707        22.866725922       -21.892126083    
 HO_163          5.4126000404        8.5378952026       -3.1252951622    
 HO_164         0.54049998522        10.864865303       -10.324365616    
 HO_165          12.467700005        22.499080658       -10.031380653    
 HO_166          136.58709717        127.30226898        9.2848281860    
 HO_167          125.56909943        133.88775635       -8.3186569214    
 HO_168          171.44259644        176.91682434       -5.4742279053    

 HEAD/DRAWDOWN SUM OF SQUARED DIFFERENCE:    7.92812E+04


 Run end date and time (yyyy/mm/dd hh:mm:ss): 2019/06/28 14:40:03
 Elapsed run time:  2.417 Seconds

