 ZONEBUDGET version 3.01                 
 Program to compute a flow budget for subregions of a model using
 budget data from MODFLOW, the USGS Modular Ground-Water Flow Model.
 
  The cell-by-cell budget file is:
 rr_tr.cbc                                                                       
  Single precision budget file
          3 layers       411 rows       253 columns
 
 russian_river                                                                   
 
  The zone file is:
 zone_bud_subbasins.zon                                                          
 
 Zone Array for layer   1 will be read from the Zone File
 Zone Array for layer   1 will be read using format: (237I5)             
 -----------------------------------------------------------------------
